*KEYWORD
*COMMENT
Rigid Seat for Yoganandan 2000 Rear Impact
Copyright (C) 2019-2023, OVTO (Open Virtual Testing Organisation)

The validation setup is distributed under the Apache License, Version 2.0. 
You may obtain a copy of the License at 
http://www.apache.org/licenses/LICENSE-2.0

Licensed under the Apache License, Version 2.0 (the "License");
you may not use this file except in compliance with the License.
You may obtain a copy of the License at

    http://www.apache.org/licenses/LICENSE-2.0       
*DATABASE_HISTORY_NODE_ID
  10000448Env_Sled                                    
*NODE
       1       1098.4074            224.           -155.       0       0
       2       1113.2222            224.           -155.       0       0
       3        1128.037            224.           -155.       0       0
       4       1142.8519            224.           -155.       0       0
       5       1157.6667            224.           -155.       0       0
       6       1172.4815            224.           -155.       0       0
       7       1187.2963            224.           -155.       0       0
       8       1202.1111            224.           -155.       0       0
       9       1216.9259            224.           -155.       0       0
      10       1231.7407            224.           -155.       0       0
      11       1246.5555            224.           -155.       0       0
      12       1261.3704            224.           -155.       0       0
      13       1276.1852            224.           -155.       0       0
      14           1291.            224.           -155.       0       0
      15       1083.5926            224.           -155.       0       0
      16       1068.7778            224.           -155.       0       0
      17        1053.963            224.           -155.       0       0
      18       1039.1481            224.           -155.       0       0
      19       1024.3333            224.           -155.       0       0
      20       1009.5185            224.           -155.       0       0
$ ... 3622 like lines cut
*ELEMENT_SHELL
       1    4000     103     106     108     102
       2    4000     102     108      98      99
       3    4000     106     107     109     108
       4    4000     108     109      97      98
       5    4000     107      89      90     109
       6    4000     109      90      91      97
       7    4000      42      43     110     105
       8    4000     105     110     111     104
       9    4000     104     111     106     103
      10    4000      87     112      44      45
      11    4000     112     110      43      44
      12    4000      89     107     113      88
      13    4000      88     113     112      87
      14    4000     107     106     111     113
      15    4000     113     111     110     112
      16    4000      36     114     116      35
      17    4000      35     116     101      34
      18    4000     114     115     117     116
      19    4000     116     117     100     101
      20    4000     115     103     102     117
$ ... 3376 like lines cut
*CONSTRAINED_RIGID_BODIES
$ANSA_ID;1;
      1000      2000         0
$ANSA_ID;2;
      1000      4000         0
*PART
Seat_Pan
$      PID|    SECID|      MID|         |     HGID|     GRAV|   ADPOPT|     TMID|
      1000      1000      1000                             0         0          
*SECTION_SHELL_TITLE
Seat_Pan
$    SECID|   ELFORM|     SHRF|      NIP|    PROPT|  QR/IRID|    ICOMP|
      1000         2   0.83333        5.        1.         0         0
$       T1|       T2|       T3|       T4|     NLOC|    MAREA|     IDOF|   EDGSET|
        1.        1.        1.        1.        0.                  0.          
*PART
Seat_Back
$      PID|    SECID|      MID|         |     HGID|     GRAV|   ADPOPT|     TMID|
      2000      2000      2000                             0         0          
*SECTION_SHELL_TITLE
Seat_Back
$    SECID|   ELFORM|     SHRF|      NIP|    PROPT|  QR/IRID|    ICOMP|
      2000         2   0.83333        5.        1.         0         0
$       T1|       T2|       T3|       T4|     NLOC|    MAREA|     IDOF|   EDGSET|
        1.        1.        1.        1.        0.                  0.          
*PART
Floor
$      PID|    SECID|      MID|         |     HGID|     GRAV|   ADPOPT|     TMID|
      4000      4000      4000                             0         0          
*SECTION_SHELL_TITLE
Floor
$    SECID|   ELFORM|     SHRF|      NIP|    PROPT|  QR/IRID|    ICOMP|
      4000         2   0.83333        5.        1.         0         0
$       T1|       T2|       T3|       T4|     NLOC|    MAREA|     IDOF|   EDGSET|
        1.        1.        1.        1.        0.                  0.          
*MAT_RIGID_TITLE

$      MID|       RO|        E|       PR|        N|   COUPLE|        M| ALIAS_RE|
      1000   7.85E-6      210.       0.3        0.        0.        0.          
$      CMO|     CON1|     CON2|
       0.0        0.        0.
$       A1|       A2|       A3|       V1|       V2|       V3|
        0.        0.        0.        0.        0.        0.
*MAT_RIGID_TITLE

$      MID|       RO|        E|       PR|        N|   COUPLE|        M| ALIAS_RE|
      2000   7.85E-6      210.       0.3        0.        0.        0.          
$      CMO|     CON1|     CON2|
       0.0        0.        0.
$       A1|       A2|       A3|       V1|       V2|       V3|
        0.        0.        0.        0.        0.        0.
*MAT_RIGID_TITLE

$      MID|       RO|        E|       PR|        N|   COUPLE|        M| ALIAS_RE|
      4000   7.85E-6      210.       0.3        0.        0.        0.          
$      CMO|     CON1|     CON2|
       0.0        0.        0.
$       A1|       A2|       A3|       V1|       V2|       V3|
        0.        0.        0.        0.        0.        0.
$ANSA_COLOR;1000;SECTION_SHELL;.670588254928589;.003921568859369;.20000000298023
$2;1.;
$ANSA_COLOR;2000;SECTION_SHELL;.894117653369904;0.;.211764708161354;1.;
$ANSA_COLOR;4000;SECTION_SHELL;.843137264251709;.992156863212585;.23529411852359
$8;1.;
$ANSA_COLOR;1000;MAT20 MAT_RIGID;0.7843137383461;.537254929542542;.6627451181411
$74;1.;
$ANSA_COLOR;2000;MAT20 MAT_RIGID;.509803950786591;.533333361148834;.674509823322
$296;1.;
$ANSA_COLOR;4000;MAT20 MAT_RIGID;0.95686274766922;.521568655967712;0.69803923368
$454;1.;
$ANSA_USER_ATTRIBUTES;SECTION_SHELL;User/cad_material;TEXT;RW;YES;;;
$ANSA_USER_ATTRIBUTES;SECTION_SHELL;User/cad_thickness;TEXT;RW;YES;;;
$ANSA_PART;GROUP;ID;2166;MID;900000;NAME;VIVA_OpenHBM_LGPL_F50_Head_spine_2_morp
$hed_14.key;PID_OFFSET;0;COLOR;238;154;73;50;IS_COLOR_ACTIVE;1;PART_TYPE;Undefin
$ed;ATTRIBUTES;2;DM/File Type;ANSA;DM/Status;WIP;CONTAINS;ANSAPART;1886;
$ANSA_PART;GROUP;ID;2245;NAME;run.key;PID_OFFSET;0;COLOR;203;202;97;0;IS_COLOR_A
$CTIVE;1;PART_TYPE;Undefined;ATTRIBUTES;2;DM/File Type;ANSA;DM/Status;WIP;CONTAI
$NS;ANSAPART;340-342;
$ANSA_PART;PART;ID;340;MID;1000;NAME;Seat_Pan;STUDY_VERSION;0;PID_OFFSET;0;COLOR
$;190;213;2;0;IS_COLOR_ACTIVE;1;PART_TYPE;Undefined;ATTRIBUTES;2;DM/File Type;AN
$SA;DM/Status;WIP;CONTAINS;SECTION_SHELL;1000;
$ANSA_PART;PART;ID;341;MID;2000;NAME;Seat_Back;STUDY_VERSION;0;PID_OFFSET;0;COLO
$R;193;179;236;0;IS_COLOR_ACTIVE;1;PART_TYPE;Undefined;ATTRIBUTES;2;DM/File Type
$;ANSA;DM/Status;WIP;CONTAINS;SECTION_SHELL;2000;
$ANSA_PART;PART;ID;342;MID;4000;NAME;Floor;STUDY_VERSION;0;PID_OFFSET;0;COLOR;19
$5;145;216;0;IS_COLOR_ACTIVE;1;PART_TYPE;Undefined;ATTRIBUTES;2;DM/File Type;ANS
$A;DM/Status;WIP;CONTAINS;SECTION_SHELL;4000;
$ANSA_PART;PART;ID;1886;NAME;NO PID ELMNTs;STUDY_VERSION;0;PID_OFFSET;0;COLOR;23
$7;149;194;0;IS_COLOR_ACTIVE;1;PART_TYPE;Undefined;ATTRIBUTES;2;DM/File Type;ANS
$A;DM/Status;WIP;CONTAINS;CONSTRAINED_RIGID_BODIES;1-2;
*END
