$
$ANSA_VERSION;22.0.0;
$
$
$ file created by  A N S A  Wed Jun  8 01:35:29 2022
$
$
*KEYWORD
*TITLE
Seatbelt                                                                        
*NODE
1500000019.6074211071402196.11332788059178.2594871108635       0       0
1500000125.0716021698817 194.9653207827788.1543205925381       0       0
1500000230.5359140705203193.83293686679798.0506855451103       0       0
1500000336.0026238340194192.748004731109107.950760547833       0       0
1500000441.4693803698087191.724505975077117.857643758236       0       0
1500000546.9448969003361190.693592287689127.762025523031       0       0
15000006114.104189582105-176.94995438309 204.11055954576       0       0
15000007103.755514164001-177.45626208985204.797996179775       0       0
1500000893.4963909000371 -176.0143557119204.093048405574       0       0
1500000984.0082189593169-172.24443458132202.198362303171       0       0
15000010  -136.379820082197.917296980821663.033550133498       0       0
15000011 60.349191119216-211.9511729471194.6082665765321       0       0
15000012124.458658264487-177.82526876588204.364448825751       0       0
15000013125.434854779017-170.21532559693212.406275525865       0       0
15000014126.335328893684-162.49352149999 220.86307192671       0       0
15000015-202.76173578504279.180568848438703.675305066111       0       0
15000016            -78.           -224.           -130.       0       0
15000017          4.5427           -224.         2.93635       0       0
15000018          57.253           -214.        87.82705       0       0
15000019-184.12941401114262.078176020512694.429927868489       0       0
$ ... 590 like lines cut
*CONSTRAINED_JOINT_REVOLUTE_ID
  15000007                                                                      
  15000016  15000606  15000607  15000608                            1.        1.
*CONSTRAINED_NODAL_RIGID_BODY
  15000247                 988                   0         0         0
  15000249                 987                   0         0         0
  15000471                 986                   0         0         0
  15000479                 985                   0         0         0
*ELEMENT_BEAM
15000005   99999150000161500001715000015                                       2
15000006   99999150000171500001815000015                                       2
*ELEMENT_SEATBELT
15000233   100011500002215000011                      0.
15000234   100011500001115000310                      0.
15000235   100011500031015000311                      0.
15000236   100011500031115000312                      0.
15000237   100011500031215000313                      0.
15000238   100011500031315000314                      0.
15000239   100011500031415000315                      0.
15000240   100011500031515000316                      0.
15000241   100011500031615000317                      0.
15000242   100011500031715000318                      0.
15000243   100011500031815000319                      0.
15000244   100011500031915000320                      0.
15000245   100011500032015000321                      0.
15000246   100011500032115000322                      0.
15000248   100011500032315000605                      0.
15000452   100011500002115000579                      0.
15000453   100011500057915000580                      0.
15000454   100011500058015000581                      0.
15000455   100011500058115000582                      0.
15000456   100011500058215000583                      0.
$ ... 21 like lines cut
*ELEMENT_SHELL_BETA
15000000   1000215000000150000011500037115000370
              0.              0.              0.              0.       0.0745496
15000001   1000215000001150000021500037215000371
              0.              0.              0.              0.     0.038932376
15000002   1000215000012150000131500007915000006
              0.              0.              0.              0.        353.4893
15000003   1000215000013150000141500008015000079
              0.              0.              0.              0.       11.461195
15000004   1000215000014150000231500008115000080
              0.              0.              0.              0.       11.091299
15000008   1000215000023150000241500008215000081
              0.              0.              0.              0.        7.180411
15000009   1000215000024150000251500008315000082
              0.              0.              0.              0.       357.60144
15000010   1000215000025150000261500008415000083
              0.              0.              0.              0.       358.75732
15000011   1000215000026150000271500008515000084
              0.              0.              0.              0.       356.45526
15000012   1000215000027150000281500008615000085
              0.              0.              0.              0.       357.12137
$ ... 844 like lines cut
*ELEMENT_SEATBELT_PRETENSIONER
     12000         7     10000                              
     12000        0.     10012
*ELEMENT_SEATBELT_RETRACTOR
     12000  15000020  15000452     10000                                        
        0.       0.1     10011     10011        4.
*ELEMENT_SEATBELT_SENSOR
     10000         3         0
     0.001
*ELEMENT_SEATBELT_SLIPRING
     12998  15000478  15000233        0.  15000018     1.E20        0.         0
        0.                   0        0.                              
*CONSTRAINED_EXTRA_NODES_NODE
$ANSA_ID;9000116;
      1000  15000605
$ANSA_ID;9000118;
      1000  15000020
$ANSA_ID;9000119;
      1000  15000606
$ANSA_ID;9000120;
      1000  15000608
$ANSA_ID;9000121;
     99999  15000607
*PART
1D Belt
$      PID|    SECID|      MID|         |     HGID|
     10001     10001     10001                    
*SECTION_SEATBELT_TITLE
1D Belt
$    SECID|     AREA|    THICK|
     10001                    
*PART
2D Belt
$      PID|    SECID|      MID|         |     HGID|     GRAV|   ADPOPT|     TMID|
     10002     10002     10002                             0         0          
*SECTION_SHELL_TITLE
2D Belt
$    SECID|   ELFORM|     SHRF|      NIP|    PROPT|  QR/IRID|    ICOMP|
     10002         9    0.8333        1.        1.         0         0
$       T1|       T2|       T3|       T4|     NLOC|    MAREA|     IDOF|   EDGSET|
      1.25      1.25      1.25      1.25        0.                  0.          
*PART
Buckle
$      PID|    SECID|      MID|         |     HGID|     GRAV|         |     TMID|
     99999     99999     99999                             0                    
*SECTION_BEAM_TITLE
Buckle
$    SECID|   ELFORM|     SHRF|  QT/IRID|      CST|         |      NSM|
     99999         1   0.83333         2        0.                  0.
$      TS1|      TS2|      TT1|      TT2|    NSLOC|    NTLOC|
        1.        1.        1.        1.        0.        0.
*MAT_SEATBELT_TITLE
Default MAT_B01 MAT_SEATBELT
$      MID|     MPUL|    LLCID|    ULCID|     LMIN|      CSE|     DAMP|        E|
     10001   0.00055     10001     10001        1.        0.        0.        0.
*MAT_FABRIC_TITLE
Default MAT34 MAT_FABRIC
$      MID|       RO|       EA|       EB|         |     PRBA|     PRCA|
     10002   9.26E-6      2.48        0.                  0.        0.
$      GAB|                   |      CSE|       EL|      PRL|   LRATIO|     DAMP|
        0.                            0.        0.        0.        0.      0.05
$     AOPT|      FLC|      FAC|      ELA|     LNRC|     FORM|    FVOPT|TSRFAC +/|
       0.0        0.        0.        0.       0.0       0.0       0.0         0
$         |   RGBRTH|    A0REF|                             |       X0|       X1|
                  0.         0                                      0.        0.
$                                                           |     BETA|   ISREFG|
                                                                    0.         0
*MAT_RIGID_TITLE
Default MAT20 MAT_RIGID
$      MID|       RO|        E|       PR|        N|   COUPLE|        M| ALIAS_RE|
     99999   7.85E-6      210.       0.3        0.        0.        0.          
$      CMO|     CON1|     CON2|
       0.0        0.        0.
$       A1|       A2|       A3|       V1|       V2|       V3|
        0.        0.        0.        0.        0.        0.
*DEFINE_CURVE
     10001         0        1.        1.        0.        0.         0         0
                 -1.              -145.7
                  0.                  0.
                  1.               145.7
*DEFINE_CURVE
     10011         0        1.        1.        0.        0.         0         0
                  0.               0.001
                100.              10000.
*DEFINE_CURVE
     10012         0        1.        1.        0.        0.         0         0
                  0.                0.01
               5000.                0.01
*SET_NODE_LIST
       985                                        
  15000598  15000369  15000421  15000473  15000525  15000577
*SET_NODE_LIST
       986                                        
  15000597  15000000  15000370  15000422  15000474  15000526
*SET_NODE_LIST
       987                                        
  15000323  15000077  15000135  15000193  15000251  15000010
*SET_NODE_LIST
       988                                        
  15000322  15000012  15000006  15000007  15000008  15000009
*SET_NODE_LIST
       989                                        
  15000078  15000136  15000194  15000252  15000309
$ANSA_COLOR;10001;SECTION_SEATBELT;0.69803923368454;.831372559070587;.2274509817
$36183;1.;
$ANSA_COLOR;10002;SECTION_SHELL;.705882370471954;.701960802078247;.1490196138620
$38;1.;
$ANSA_COLOR;99999;SECTION_BEAM_ELFORM_1;.862745106220245;.729411780834198;.50196
$0813999176;1.;
$ANSA_COLOR;10001;MAT_B01 MAT_SEATBELT;.811764717102051;.364705890417099;.694117
$665290833;1.;
$ANSA_COLOR;10002;MAT34 MAT_FABRIC;.819607853889465;0.23137255012989;0.611764729
$02298;1.;
$ANSA_COLOR;99999;MAT20 MAT_RIGID;.980392158031464;0.26274511218071;.96470588445
$6635;1.;
$ANSA_SEATBELT;ID;1;NAME;3-Point Seatbelt Entity;COLOR;194;16;254;100;DISABLE_P2
$W;0;PROP_CONTAINS;;CONTACT_NAME;Default Seatbelt Contact;CREATE_CNCT;1;AUTO_REC
$REATE;0;USE_REAL_THICKNESS;0;THICKNESS_FACTOR;1.;APPLY_CONSTANT_WIDTH;1;SMOOTH_
$BELT;1;UNFOLD_BELT;0;CHECK_QUALITY;1;BELT_TYPE;1;KEEP_ID_RANGE;1;N_RBODY_CONS_S
$ET;0;MAT_ORIENT;0;NUM_OF_COMPONENTS;3;COMP_NAME;Lap;POINTS_NAME;SBPoint;INDEX;0
$;GENTYPE;0;FLIPPED_ENTRY;0;FLIPPED_EXIT;0;LENGTH_1;220.075;LENGTH_2;87.716;EL_L
$ENGTH;11.40175;EL_OFFSET;4.968;NUM_OF_SHELLS;4;EXTEND_SBLTS;0;CREATE_TRIAS_AT_E
$ND;0;CREATE_TRIAS_AT_START;0;IS_FROZEN;0;IS_MEMBRANE;0;STATUS_ERROR;0;SBLT_POIN
$TS;6;0;SBPoint_1_0;-70.;224.;-130.;1;SBPoint_1_1;82.2523940822791;182.663555702
$585;152.88158546881;2;SBPoint_1_2@_1;151.589155602787;105.788314800685;228.6823
$57828332;3;SBPoint_1_3@_1;179.351317533917;-8.077670355E-15;232.805684699063;4;
$SBPoint_1_4;134.403922444983;-139.00728948501;214.193906741925;5;SBPoint_1_5;57
$.253;-214.;87.82705;ENTRY_VEC;0.;0.;0.;EXIT_VEC;0.;0.;0.;SP_ENTITY;3;EP_ENTITY;
$1;START_PART_TYPE;0;END_PART_TYPE;0;MAIN_PART_TYPE_v14;0;CONTAINS;CONSTRAINED_N
$ODAL_RIGID_BODY(15000471,15000479) ELEMENT_SHELL(15000000-15000001,15000250-150
$00451) ELEMENT_SEATBELT(15000452-15000470,15000472-15000478) ELEMENT_SEATBELT_S
$LIPRING(12998) ELEMENT_SEATBELT_RETRACTOR(12000) NODE(15000000-15000005,1500001
$8,15000020-15000022,15000324-15000604);SBLT_PATH;80;1;-70.;224.;-130.;0.4808033
$2629115;-.09941934506011;.871173894957364;-.13742991091797;.968012060803858;.20
$9918245332192;-.13742991091797;.968012060803858;.209918245332192;0.;0.;0.;0;1;0
$;2;-64.517880473628;222.866420627625;-120.0668752497;.480157943988509;-.1048831
$6237086;.870889126741065;-.12424659179524;.954969342536403;.269437078448487;-.1
$3694199737944;0.96758807819699;.212179641541752;0.;0.;0.;0;1;0;3;-59.0357609472
$57;221.732841255249;-110.13375049939;.479497728779209;-.11034592090951;.8705777
$99989302;-.12375867355777;.954425772016563;.271579153157618;-.13645329179396;.9
$67158712656405;.214440023529653;0.;0.;0.;0;0;0;4;-53.553641420885;220.599261882
$874;-100.20062574909;.478822693924951;-0.1158073691736;.870239898549557;-.12374
$027268674;.954405190547435;.271659855649534;-.13596379805686;.966723966631279;.
$216699372307907;0.;0.;0.;0;0;0;5;-48.071521894513;219.465682510499;-90.26750099
$8785;.478132854065784;-.12126725540689;.869875408681605;-.12373955207311;.95440
$4384416584;.271663015994351;-.13547352007759;.966283842660848;.218957668900575;
$0.;0.;0.;0;0;0;6;-42.589402368142;218.332103138123;-80.334376248481;.4774282252
$20358;-.12672532763736;.869484319063974;-.12373952270529;.954404351563403;.2716
$63144790583;-.13498246177965;.965838343374369;.221214894344298;0.;0.;0.;0;0;0;7
$;-37.10728284177;217.198523765748;-70.401251498177;.476708824785866;-.132181333
$71537;0.86906662079987;-0.1237395214577;.954404350167747;0.27166315026205;-0.13
$44906271005;.965387471491074;.223471029688829;0.;0.;0.;0;0;0;8;-31.625163315398
$;216.064944393373;-60.468126747873;.475974671537667;-.13763502135189;.868622307
$422549;-.12373952140235;.954404350105833;.271663150504775;-0.1339980199914;.964
$931229820121;.225726055997556;0.;0.;0.;0;0;0;9;-26.143043789026;214.93136502099
$7;-50.535001997569;0.47522578562859;-.14308613815694;.868151374900151;-.1237395
$2139978;.954404350102959;.271663150516041;-.13350464441736;.964469621260546;.22
$7979954348037;0.;0.;0.;0;0;0;10;-20.660924262655;213.797785648622;-40.601877247
$265;.474462188587924;-.14853443167799;.867653821639975;-.12373952139966;.954404
$350102819;.271663150516589;-0.133010504357;.964002648801201;.230232705832522;0.
$;0.;0.;0;0;0;11;-15.178804736283;212.664206276246;-30.668752496961;.47368390332
$0087;-.15397964943856;.867129648492212;-.12373952139965;.954404350102812;.27166
$3150516617;-.13251560380245;0.9635303155207;.232484291558487;0.;0.;0.;0;0;0;12;
$-9.6966852099114;211.530626903871;-20.735627746657;0.47289095410298;-0.15942153
$89768;.866578858753111;-.12373952139965;.954404350102812;.271663150516619;-.132
$01994675926;.963052624587353;.234734692649153;0.;0.;0.;0;0;0;13;-4.214565683539
$7;210.397047531496;-10.802502996354;0.47208336658602;-0.1648598478842;0.8660014
$581676;-.12373952139965;.954404350102812;.271663150516619;-.13152353724627;.962
$569579259098;.236983890244021;0.;0.;0.;0;0;0;14;1.26755384283203;209.2634681591
$2;-.86937824604976;.471261167787861;-.17029432384429;.865397454931339;-.1237395
$2139965;.954404350102812;.271663150516619;-.13102637929552;.962081182883434;.23
$9231865499393;0.;0.;0.;0;0;0;15;6.74967336920372;208.129888786745;9.06374650425
$411;.470424386093785;-.17572471467139;0.86476685969222;-.12373952139965;.954404
$350102812;.271663150516619;-.13052847695212;0.96158743889734;.241478599588896;0
$.;0.;0.;0;0;0;16;12.2317928955754;206.99630941437;18.996871254558;0.46957305125
$279;-.18115076834942;.864109685551296;-.12373952139965;.954404350102812;.271663
$150516619;-.13002983427416;.961088350827205;.243724073704013;0.;0.;0.;0;0;0;17;
$17.7139124219471;205.862730041994;28.9299960048618;.468707194374351;-.186572233
$07062;.863425948063159;-.12373952139965;.954404350102812;.271663150516619;-.129
$53045533259;.960583922288738;.245968269054602;0.;0.;0.;0;0;0;18;23.196031948318
$8;204.729150669619;38.8631207551657;.467826847924871;-.19198885727438;.86271566
$5235747;-.12373952139965;.954404350102812;.271663150516619;-0.1290303442111;.96
$0074156986888;.248211166869423;0.;0.;0.;0;0;0;19;28.6781514746905;203.595571297
$244;48.7962455054696;.466932045723809;-.19740038968596;.861978857529585;-.12373
$952139965;.954404350102812;.271663150516619;-.12852950500605;.959559058715753;.
$250452748396657;0.;0.;0.;0;0;0;20;34.1602710010622;202.461991924868;58.72937025
$57734;.466022822939502;-.20280657935526;.861215547856468;-.12373952139965;.9544
$04350102812;.271663150516619;-.12802794182629;.959038631358483;.252692994904431
$;0.;0.;0.;0;0;0;21;39.6423905274339;201.328412552493;68.6624950060773;.46509921
$6084666;-.20820717569546;.860425761577576;-.12373952139965;.954404350102812;.27
$1663150516619;-.12752565879312;.958512878887189;.254931887681341;0.;0.;0.;0;0;0
$;22;45.1245100538056;200.194833180117;78.5956197563812;.464161263011588;-.21360
$192852168;0.85960952650102;-.12373952139965;.954404350102812;.271663150516619;-
$.12702266004013;0.95798180536284;.257169408036968;0.;0.;0.;0;0;0;23;50.60662958
$01773;199.061253807742;88.528744506685;0.46320900290701;-.21899058808954;.85876
$6872878833;-.12373952139965;.954404350102812;.271663150516619;-.12651894971308;
$.957445414935156;.259405537302402;0.;0.;0.;0;0;0;24;56.088749106549;197.9276744
$35367;98.4618692569889;.462242476286694;-.22437290513366;.857897833403389;-.123
$73952139965;.954404350102812;.271663150516619;-.12601453196983;.956903711842503
$;.261640256830758;0.;0.;0.;0;0;0;25;61.5708686329207;196.794095062991;108.39499
$4007293;.461261724989689;-0.229748630906;0.85700244320326;-.12373952139965;.954
$404350102812;.271663150516619;-0.1255094109802;.956356700411782;.26387354799769
$9;0.;0.;0.;0;0;0;26;67.0529881592923;195.660515690616;118.328118757597;.4602667
$92172283;-0.2351175172142;.856080739838519;-.12373952139965;.954404350102812;.2
$71663150516619;-.12500359092584;0.95580438505831;.266105392201944;0.;0.;0.;0;0;
$0;27;72.535107685664;194.526936318241;128.2612435079;.459257722301657;-.2404793
$1645975;0.85513276329547;-.12373952139965;.954404350102812;.271663150516619;-.1
$2449707600015;.955246770285705;.268335770865797;0.;0.;0.;0;0;0;28;78.0172272120
$357;193.393356945865;138.194368258204;.458234561149232;-.24583378167598;.854158
$555980831;-.12373952139965;.954404350102812;.271663150516619;-.12398987040814;.
$954683860685761;.270564665435649;0.;0.;0.;0;0;0;29;83.3277781621497;191.0630677
$05922;148.01136396282;.460401618922398;-.28583026440046;.840435249883295;-.1153
$1271141145;.944384028515502;.307963935018003;-.11068162937446;.938376255371102;
$.327413469904223;0.;0.;0.;0;1;0;30;88.6136597011815;187.945180343205;157.620934
$127439;.469444885820497;-.35457450971781;.808639855705466;-.10452881441244;.922
$430190083357;.371747590954282;-.09958070826194;.912828014306452;.39601603356352
$9;0.;0.;0.;0;1;0;31;93.9892906821177;183.904045533164;166.828399848465;.4801881
$33741187;-.42786039124325;.765738102629957;-.08475172785072;.884302358244682;.4
$59158451767155;-.08147510304522;0.87693789386415;.473647271594464;0.;0.;0.;0;1;
$0;32;99.4825359610824;178.962893261374;175.512573645213;.490220190076811;-.4747
$3072332873;.730968470981368;-.06347342344908;.839433805453505;.539742541196728;
$-.06416311438661;.840471089268123;.538044090067595;0.;0.;0.;0;1;0;33;104.975781
$240047;174.021740989584;184.19674744196;.498535033643607;-.51994654786977;0.693
$62699456428;-.06127976760885;.834454444117516;.547659173915979;-.04647379415424
$;.799132924109605;.599355283668161;0.;0.;0.;0;0;0;34;110.654252895612;168.13003
$2754479;192.137045782032;.563296358801779;-.52987425903799;.633979874893199;-.0
$4990523170624;.821682316934871;.567756671369776;-.01834785346891;.7790668403191
$66;.626672334308923;0.;0.;0.;0;1;0;35;117.098899670619;162.092595131909;199.349
$637472885;.503101697303586;-.58052807396827;.640215461782159;-.01121269942899;.
$807885785485756;.589232409989113;.046423856844656;.774069450824389;.63139631834
$2209;0.;0.;0.;0;1;0;36;122.801807865937;155.443035569158;206.647979732413;.4893
$50387032187;-.60791436994368;.625280990857248;0.01671642124383;.781543400093436
$;.623626871639757;.054300744586618;.752037421753805;.656879856152728;0.;0.;0.;0
$;1;0;37;128.355659701848;148.47451385654;213.761350166006;.483882172320903;-.69
$063082040295;.537482198048966;.060530309483159;.724269041708814;.68685547013623
$6;0.08272057936422;.702261075790954;.707097367537583;0.;0.;0.;0;1;0;38;133.8480
$76040941;140.478863507519;219.753723840458;.443695237009141;-.77595998041044;.4
$48353259670135;.149104993308672;.617951290279309;.771948122487877;.146973899426
$285;.622382875391039;.768790107446379;0.;0.;0.;0;1;0;39;139.340492380035;132.48
$3213158499;225.74609751491;.395954545800088;-.84832653858876;.351513984908518;.
$160637000605548;.602518496891991;.781771843276201;.209205943255617;.53346904298
$2723;.819538683336928;0.;0.;0.;0;0;0;40;143.907218280658;122.874164823206;229.8
$46927752628;.420671511693368;-.85568694589092;.301389000929829;.187689013731047
$;.553857952324899;.811180746055487;.238182622031445;.459555341704353;.855615524
$913627;0.;0.;0.;0;1;0;41;148.730873914646;113.129900503137;233.280186144496;.42
$0559135192164;-.87019494596859;.256691974586556;.218568454913723;.4946759795123
$24;.841144164700767;.256711512340875;.416349411548958;.872211193997473;0.;0.;0.
$;0;1;0;42;153.534734060832;103.202082362874;236.172755706278;.424113386421352;-
$.88067327106592;.211050764244701;.258517071261621;.434366356955543;.86284111620
$3605;.284953766972007;.382181015972653;0.87905575575078;0.;0.;0.;0;1;0;43;158.3
$75975048749;93.1518023868269;238.530691689289;0.38137053923463;-0.9089257560447
$;.168554091621848;.377130609957169;.391209332803446;.839480649545191;.395150340
$125927;.362402401676792;.844109417052823;0.;0.;0.;0;1;0;44;162.691012861463;82.
$7639187200501;240.39561141956;.363541373454049;-.92225387231911;.13147419815141
$9;.514810961546857;.355418939366024;.780158350215602;.510912906269658;.34346607
$0008649;.788034936382839;0.;0.;0.;0;1;0;45;167.006050674178;72.3760350532732;24
$2.260531149832;.345030367243011;-.93385803087361;.094144696361633;.526128400777
$637;.351931953745736;.774165877462882;.618130854321129;.318699100318725;.718571
$590304172;0.;0.;0.;0;0;0;46;170.951602808745;61.7348899646131;243.357916021015;
$.228661439508554;-.97132733371056;.065093447201812;.590658424797127;.3350048592
$09635;.734094251116373;.754700697549714;.273770267551907;.596218666029949;0.;0.
$;0.;0;1;0;47;173.507868206223;50.6473694122935;244.091400321831;.19823668086953
$5;-.97908308401649;0.0458097473316;.680047908914808;.289894283932735;.673421224
$586606;.809697849623911;.214548499623601;.546221872157895;0.;0.;0.;0;1;0;48;175
$.734871014329;39.4765236463252;244.599600445443;.142334814883598;-0.98916570063
$3;.035944640258073;.762319924429822;.233699532815191;.603533645440975;.84382747
$5964125;0.17180645235745;0.50836771508069;0.;0.;0.;0;1;0;49;177.302824384576;28
$.1898324470011;244.996750291006;.099943159953714;-.99382463373577;.048207490687
$853;.841894774939562;.171349155175069;.511715404253433;.885211105652561;.130135
$801407752;.446616134528673;0.;0.;0.;0;1;0;50;178.317905007948;16.8477023677739;
$245.572337464199;0.02857999560267;-.99941991134517;.018520924873521;.8912653203
$62662;.069450237798111;.448132562071344;.899774972873417;.078035682184917;.4293
$19729917664;0.;0.;0.;0;1;0;51;179.33298563132;5.50557228854677;246.147924637392
$;-.04305958572225;-0.9990083670327;-0.0113205422166;.900117625710485;.046858508
$893015;.433119544732908;.911444447380108;.025642679681936;.410623272987173;0.;0
$.;0.;0;0;0;52;178.881592223388;-5.8870955189556;246.05322395538;-.0851815105162
$1;-.99636491979715;-.00102803881186;.910382098261208;-0.0297168382351;.41270006
$6259783;.914769547450843;-.03334492842895;.402597554394768;0.;0.;0.;0;1;0;53;17
$8.430198815455;-17.279763326458;245.958523273368;-.12714698441579;-.99184059127
$358;.009267462222525;.911010762634935;-.03648741237497;.410765211649542;.914842
$334783538;-.09222537734843;.393138629825085;0.;0.;0.;0;0;0;54;177.017046953406;
$-28.593406582221;246.058932914868;-.14853435336976;-.98651442582479;-.068751970
$94343;0.90207236052376;-.06081157476998;0.42727907595983;.876133858404188;-.134
$21493005292;.463007359238143;0.;0.;0.;0;1;0;55;175.321802352241;-39.83901410379
$5;245.241582798362;-0.1623035941343;-.98275394669329;-.08861277328833;0.8828630
$8100501;-.10147766172522;.458535783084726;.847856978223454;-.16992200982197;.50
$2259947692285;0.;0.;0.;0;1;0;56;173.461261743328;-51.040618974878;244.208122129
$191;-.28299869217714;-.95617539615534;-0.0751022770174;.848621502659303;-.16774
$745291377;.501699449137838;.813800724825775;-.22456512737055;.536002690144451;0
$.;0.;0.;0;1;0;57;170.142522591663;-61.915439112852;243.353802862217;-.331593145
$42092;-.93895643516093;-.09168859678138;.757579436706679;-.24067455618629;.6067
$52960506767;.720193112896054;-.27760161437107;0.63581382796827;0.;0.;0.;0;1;0;5
$8;166.287149334614;-72.593691446953;242.297096593627;-.37827611509828;-.9150865
$4293098;-.13972759102188;.633745218070818;-.29716230800551;.714185943066095;.61
$3086449456528;-.31411431874591;.724884266798213;0.;0.;0.;0;1;0;59;162.431776077
$564;-83.271943781055;241.240390325037;-.42304717390449;-.88658854941847;-.18706
$104001497;.632606147967403;-.29760603173162;.715010567356036;.493253886744584;-
$0.3441151504668;.798927635290316;0.;0.;0.;0;0;0;60;157.610742238958;-93.3827226
$87622;239.110745605949;-.37119982261364;-.89521614093953;-.24657403085674;.5897
$15225833792;-.30933161732514;.746022722805956;.332696368323097;-.35797680855844
$;.872448125127757;0.;0.;0.;0;1;0;61;153.394005692642;-103.59187981029;236.28269
$8975552;-.36881832729254;-.88252979146704;-.29174339517165;.508325938202254;-.3
$3581299210278;.792990778562889;.285056128908937;-.38196589060405;.8791160684383
$54;0.;0.;0.;0;1;0;62;149.194116712365;-113.64692733781;232.926725827181;-.37119
$271621061;-.87002407373633;-0.3244596716873;.416039315947699;-.37423556883238;.
$828769585956478;.261709611719287;-.41241675705385;.872594119642649;0.;0.;0.;0;1
$;0;63;144.961695917099;-123.55234400111;229.188418865717;-.40357551419022;-.818
$86146375461;-.40815769933173;.327988861152673;-.44357102135105;.834067177137045
$;.237857479302578;-0.471547890546;.849156290950872;0.;0.;0.;0;1;0;64;140.320352
$434062;-132.80623030858;224.410435726246;-.41859506810664;-.74319505768053;-.52
$195715839141;.212863506861132;-.56319133410682;.798438882215643;.17708600789952
$6;-0.5624315391602;.807657916177444;0.;0.;0.;0;1;0;65;135.679008951025;-142.060
$11661604;219.632452586775;-.42570639154945;-.65336407285685;-.62601074790602;.2
$00949332331034;-.57432032757017;.793583976133219;.113836485898165;-.64569328797
$649;.755063859776419;0.;0.;0.;0;0;0;66;130.825778295108;-149.5814191303;212.569
$750222284;-.43196080039341;-.63140182973428;-.64400434496336;.153901883261715;-
$0.6126628357937;.775215105609865;.030954432113132;-.69995514553517;.71351567422
$9654;0.;0.;0.;0;1;0;67;125.898384951612;-156.78971416759;205.237159855035;-.424
$03030742019;-.62090161019527;-.65930227426125;.087449408474005;-.64604742490849
$;0.75827127449657;-.03249131259101;-.70505921269916;.708403713424878;0.;0.;0.;0
$;1;0;68;121.065451857772;-163.86857714033;197.717980330401;-.42212358353644;-.5
$8008132610023;-.69664721009429;.021376052208571;-.67875251789217;.7340559132974
$91;-.07598988902325;-.72033668133838;.689449492192609;0.;0.;0.;0;1;0;69;116.254
$239236038;-170.4627298709;189.757139490742;-.42815484775522;-.53799028280024;-.
$72611974353837;-.02658175452144;-.72093740514936;.692490193564552;-.08901361986
$369;-.75430037824073;.650467151257199;0.;0.;0.;0;1;0;70;111.369969603558;-176.5
$6278269628;181.454196055746;-.44911616949084;-.46854186084641;-.76076487230712;
$-.05680353672333;-.77295529503078;0.63191254940822;-0.0915041594784;-.796893123
$86252;.597150180389146;0.;0.;0.;0;1;0;71;106.23400263738;-181.83625943995;172.7
$46849137405;-.46525521136212;-.38133511287061;-.79882483686497;-.08087293765063
$;-.82413832521036;.560585041608521;-0.0985229554976;-.83568728180767;.540296209
$745099;0.;0.;0.;0;1;0;72;100.791124777641;-185.41036576596;163.310372346592;-.4
$6674189487823;-.37168522903926;-.80249741063726;-0.1071519087054;-.875536510594
$96;.471120246939135;-.09988049766148;-.84111484709094;.531554042586523;0.;0.;0.
$;0;1;0;73;95.3482469179033;-188.98447209197;153.873895555779;-.46817832670876;-
$0.3619911926517;-.80608400979227;-.10995279287181;-.88055671906756;.46101003009
$1173;-.10122778686159;-.84645380115193;.522751277074053;0.;0.;0.;0;0;0;74;89.90
$53690581651;-192.55857841798;144.437418764966;-.46956421831047;-.35225454326259
$;-.80958395588928;-.11029477289779;-.88116331826043;.459767625680291;-.10256459
$402094;-.85170318568985;.513889275563397;0.;0.;0.;0;0;0;75;84.462491198427;-196
$.132684744;135.000941974152;-.47089929732101;-.34247683633921;-.81299659799636;
$-.11034225812639;-0.8812474368733;.459594975033251;-.10389069317141;-.856862070
$22861;.504969421327574;0.;0.;0.;0;0;0;76;79.0196133386888;-199.70679107001;125.
$564465183339;-.47218330773033;-.33265964243502;-.81632131308441;-.1103498563878
$3;-.88126089446708;0.45956734553084;-.10520586158017;-.86192955265832;.49599311
$7838743;0.;0.;0.;0;0;0;77;73.5767354789507;-203.28089739602;116.127988392526;-.
$47341601003904;-0.3228045463495;-.81955750639892;-.11035128126324;-.88126341804
$607;.459562164170762;-.10650987987369;-.86690475975472;.486961788032597;0.;0.;0
$.;0;0;0;78;68.1338576192125;-206.85500372203;106.691511601713;-.47459718140342;
$-.31291314627544;-.82270461180908;-.11035159794919;-0.8812639789213;.4595610125
$82517;-.10780253215912;-.87178684767568;.477876873556138;0.;0.;0.;0;0;0;79;62.6
$909797594744;-210.42911004804;97.2550348108995;-.47572661576685;-.3029870529345
$5;-.82576209213372;-.11035167712063;-.88126411913983;.459560724685389;-.1090836
$0614301;-.87657500243437;.468739833999649;0.;0.;0.;0;0;0;80;57.253;-214.;87.827
$05;-.47572661576685;-.30298705293455;-.82576209213372;-.11035175636336;-.881264
$25948457;.459560436528896;-.11035175636336;-.88126425948457;.459560436528896;0.
$;0.;0.;0;1;0;SBLT_NODE_IDS;6;12000;6202984;6202051;6220366;6222109;15000;SBLT_P
$OINTS_TYPES;6;0;0;0;0;0;0;SBLT_POINTS_ENTITY_TYPE;6;0;0;0;0;0;0;STIFFENER_CREAT
$E;0;COMP_NAME;Shoulder;POINTS_NAME;SBPoint;INDEX;1;GENTYPE;0;FLIPPED_ENTRY;0;FL
$IPPED_EXIT;0;LENGTH_1;152.963517712671;LENGTH_2;128.117881754054;EL_LENGTH;10.3
$693720570427;EL_OFFSET;12.7348709828635;NUM_OF_SHELLS;4;EXTEND_SBLTS;0;CREATE_T
$RIAS_AT_END;0;CREATE_TRIAS_AT_START;0;IS_FROZEN;0;IS_MEMBRANE;0;STATUS_ERROR;0;
$SBLT_POINTS;3;0;SBPoint_1_5;57.253;-214.;87.82705;1;SBPoint_2_2;71.172054400973
$3;-6.0646086810186;435.447243822471;2;SBPoint_2_3;-202.76173578504;279.18056884
$8438;703.675305066111;ENTRY_VEC;0.;0.;0.;EXIT_VEC;0.;0.;0.;SP_ENTITY;1;EP_ENTIT
$Y;1;START_PART_TYPE;0;END_PART_TYPE;0;MAIN_PART_TYPE_v14;0;CONTAINS;CONSTRAINED
$_NODAL_RIGID_BODY(15000247,15000249) ELEMENT_SHELL(15000002-15000004,15000008-1
$5000232) ELEMENT_SEATBELT(15000233-15000246,15000248) NODE(15000006-15000014,15
$000023-15000077,15000079-15000135,15000137-15000193,15000195-15000251,15000253-
$15000308,15000310-15000323,15000605);SBLT_PATH;75;1;57.253;-214.;87.82705;.2063
$35020241506;.314620980533182;.926520101255378;0.;0.;0.;0.33010723118533;-.82222
$787227808;.463649158274027;0.;0.;0.;0;0;0;2;59.3925645932815;-210.7375779959;97
$.4344816482454;.206335020241502;.314620980533179;0.92652010125538;0.;0.;0.;0.33
$010723118533;-.82222787227808;.463649158274027;0.;0.;0.;0;0;0;3;61.532129186563
$;-207.4751559918;107.041913296491;.206335020241514;.314620980533194;.9265201012
$55373;0.;0.;0.;0.33010723118533;-.82222787227808;.463649158274027;0.;0.;0.;0;0;
$0;4;63.6716937798445;-204.2127339877;116.649344944736;.206335020241431;.3146209
$80534035;.926520101255105;0.;0.;0.;0.33010723118533;-.82222787227808;.463649158
$274027;0.;0.;0.;0;0;0;5;65.811258373126;-200.95031198359;126.256776592982;.2063
$35020241514;.314620980533196;.926520101255372;0.;0.;0.;0.33010723118533;-.82222
$787227808;.463649158274027;0.;0.;0.;0;0;0;6;67.9508229664075;-197.68788997949;1
$35.864208241227;.206335020241495;.314620980533165;.926520101255386;0.;0.;0.;0.3
$3010723118533;-.82222787227808;.463649158274027;0.;0.;0.;0;0;0;7;70.09038755968
$9;-194.42546797539;145.471639889473;.206335020241512;.314620980533197;.92652010
$1255372;0.;0.;0.;0.33010723118533;-.82222787227808;.463649158274027;0.;0.;0.;0;
$0;0;8;72.2299521529705;-191.16304597129;155.079071537718;.206335020241513;.3146
$20980533193;.926520101255373;0.;0.;0.;0.33010723118533;-.82222787227808;.463649
$158274027;0.;0.;0.;0;0;0;9;74.369516746252;-187.90062396719;164.686503185963;.2
$06335020241494;.314620980533165;.926520101255387;0.;0.;0.;0.33010723118533;-.82
$222787227808;.463649158274027;0.;0.;0.;0;0;0;10;76.5090813395335;-184.638201963
$09;174.293934834209;.206335020241442;.314620980534066;.926520101255092;0.;0.;0.
$;0.33010723118533;-.82222787227808;.463649158274027;0.;0.;0.;0;0;0;11;78.648645
$9328149;-181.37577995898;183.901366482454;.206335020241495;.314620980533165;.92
$6520101255386;0.;0.;0.;0.33010723118533;-.82222787227808;.463649158274027;0.;0.
$;0.;0;0;0;12;80.7882105260964;-178.11335795488;193.5087981307;.206335020241512;
$.314620980533193;.926520101255373;0.;0.;0.;0.33010723118533;-.82222787227808;.4
$63649158274027;0.;0.;0.;0;0;0;13;82.9277751193779;-174.85093595078;203.11622977
$8945;.206335020241514;.314620980533196;.926520101255372;0.;0.;0.;0.330107231185
$33;-.82222787227808;.463649158274027;0.;0.;0.;0;0;0;14;85.0673397126594;-171.58
$851394668;212.72366142719;.206335020241494;.314620980533165;.926520101255387;0.
$;0.;0.;0.33010723118533;-.82222787227808;.463649158274027;0.;0.;0.;0;0;0;15;87.
$2069043059409;-168.32609194258;222.331093075436;.183404063138939;0.352813517243
$26;.917543226052358;0.;0.;0.;0.33010723118533;-.82222787227808;.463649158274027
$;0.;0.;0.;0;0;0;16;89.104871022454;-164.67498246658;231.826338023691;.105240278
$903914;0.5110817154075;.853065040821832;0.33010723118533;-.82222787227808;.4636
$49158274027;0.33010723118533;-.82222787227808;.463649158274027;0.;0.;0.;0;0;0;1
$7;90.2458704521613;-159.1339106271;241.075142143354;0.06250816510164;.589911089
$458571;.805045114157851;.356471046552027;-.78442627479428;.507546857326959;.356
$471046552027;-.78442627479428;.507546857326959;0.;0.;0.;0;0;0;18;90.92930353346
$69;-152.68411718156;249.877103648131;.014752624608757;0.64259187060465;.7660666
$08004793;.456430766659294;-.72830849657165;.511114164417648;.456430766659294;-.
$72830849657165;.511114164417648;0.;0.;0.;0;0;0;19;91.0904165320476;-145.6663894
$2922;258.243295536112;-.01164216761639;.661598804741487;.749767618331059;.57600
$5703193582;-.64791709855783;.498418361705174;.576005703193582;-.64791709855783;
$.498418361705174;0.;0.;0.;0;1;0;20;90.9636819190261;-138.46433984041;266.405135
$504088;-.01021786823271;.648573056258277;.761083823152599;.668771757569405;-.59
$390431784565;.447238188800798;.668771757569405;-.59390431784565;.44723818880079
$8;0.;0.;0.;0;1;0;21;90.8527092447778;-131.42041591625;274.670999308435;-0.01253
$51248685;.636950817910205;.770802520888491;.740502238267594;-.54016525164853;0.
$39984739092829;.740502238267594;-.54016525164853;0.39984739092829;0.;0.;0.;0;1;
$0;22;90.7165713856538;-124.50280467366;283.042308417994;-.02122992494777;.62707
$0275688583;.778673333070137;.803051039628342;-0.4835874098133;.348212930291085;
$.803051039628342;-0.4835874098133;.348212930291085;0.;0.;0.;0;1;0;23;90.4857354
$201959;-117.68458120586;291.508933291034;-.01907135560545;.615077784997225;.788
$235752677001;.853722707296074;-.42299680698409;.303695966927984;.85372270729607
$4;-.42299680698409;.303695966927984;0.;0.;0.;0;1;0;24;90.2770807092183;-110.955
$17611728;300.132814391025;-.01579071473191;.598868731150085;.800691511244464;.8
$86927663801403;-.37750520091161;.266175022247526;.886927663801403;-.37750520091
$161;.266175022247526;0.;0.;0.;0;1;0;25;90.1039608884595;-104.3895425057;308.911
$110577299;-.02772847616254;.606698552559897;.794448234897296;0.91021485428813;-
$.32811185037445;.252688608126862;0.91021485428813;-.32811185037445;.25268860812
$6862;0.;0.;0.;0;1;0;26;89.8008146043553;-97.756707340085;317.596551093774;-0.03
$8425001793;.599493397308104;.799456806726415;0.92690616025412;-.28868391827419;
$.239805265606959;0.92690616025412;-.28868391827419;.239805265606959;0.;0.;0.;0;
$1;0;27;89.3795306322755;-91.183982607002;326.361634329381;-.04781483549196;.602
$903409089082;.796380073090506;.939608149969536;-.25534509479748;.22789341165047
$6;.939608149969536;-.25534509479748;.227893411650476;0.;0.;0.;0;1;0;28;88.85712
$45223327;-84.596896792048;335.062570173636;-.04694918016102;.593655255981035;.8
$03348748382855;.951852551131107;-.22981564908433;.202882942459817;.951852551131
$107;-.22981564908433;.202882942459817;0.;0.;0.;0;1;0;29;88.3446500224539;-78.11
$6843692807;343.831535822103;-.03847632356821;.588359418757991;.807683580917325;
$.964208172207248;-.20502138378652;.168133378122904;.964208172207248;-.205021383
$78652;.168133378122904;0.;0.;0.;0;1;0;30;87.9227157381357;-71.664849654565;352.
$68865526767;-.03200036555945;.590881399597957;.806123531608662;.977290500833265
$;-.16987490697215;.126671989651504;.977290500833265;-.16987490697215;.126671989
$651504;0.;0.;0.;0;1;0;31;87.5730064489898;-65.207526101838;361.498207354783;-.0
$3191898611291;.602070916729855;.797804355436592;.989112426479826;-.118260230392
$61;.087584962697243;.989112426479826;-.11826023039261;.087584962697243;0.;0.;0.
$;0;1;0;32;87.2237863513779;-58.62037250097;370.226846600881;-.03648115626901;.6
$16898801921008;.786196536131838;.997049693210742;-.05906802617891;0.04901915494
$674;.997049693210742;-.05906802617891;0.04901915494674;0.;0.;0.;0;1;0;33;86.824
$2024491193;-51.863381884975;378.838182204756;-.02974079145913;.621372561902502;
$.782950588886748;.999975844512672;-.00666094946725;.001985483156048;.9999758445
$12672;-.00666094946725;.001985483156048;0.;0.;0.;0;1;0;34;86.4983810763778;-45.
$056015598803;387.415695550707;-.03558896067445;.617662416679693;.78563768042241
$6;.997951371061936;.050904881861701;-.03875247086637;.997951371061936;.05090488
$1861701;-.03875247086637;0.;0.;0.;0;1;0;35;86.1106251415568;-38.326336978113;39
$5.975531731072;-.04146254138469;.598846113559757;.799790091171614;.992980769197
$595;.108416193391076;-.04727706647351;.992980769197595;.108416193391076;-.04727
$706647351;0.;0.;0.;0;1;0;36;85.6623778870048;-31.852273465898;404.621979840932;
$-.07626293222069;.565820748950674;.820993815583285;.988779855191053;.1493660028
$26739;.002048210907972;.988779855191053;.149366002826739;.002048210907972;0.;0.
$;0.;0;1;0;37;84.8101724498526;-25.529470176433;413.796232300616;-.1701763758597
$2;.541884183954051;.823044064603898;0.97653281955887;.177053686332777;.12261991
$8774965;0.97653281955887;.177053686332777;.122619918774965;0.;0.;0.;0;1;0;38;82
$.8967293240584;-19.436588238353;423.050442820061;-.29966946116461;.512691896342
$515;0.80457767398184;.940935606172889;.185697456697798;.283119479393466;.940935
$606172889;.185697456697798;.283119479393466;0.;0.;0.;0;1;0;39;79.5128265503805;
$-13.647211091502;432.135828471457;-.41262662677408;.500031345046521;.7613855270
$80739;.889666892546926;.170808344926995;.423458769668544;.889666892546926;.1708
$08344926995;.423458769668544;0.;0.;0.;0;1;0;40;74.888292231771;-8.0430838599983
$;440.669096252078;-.46881326122169;.499603182157691;.728430358016873;.847838868
$815498;.127245682241146;.514759933247181;.847838868815498;.127245682241146;.514
$759933247181;0.;0.;0.;0;1;0;41;69.638706820568;-2.448725096317;448.825771194586
$;-.47862355591942;0.50746898640296;.716515679910916;.817422277369002;0.05520009
$29773;.573387975280413;.817422277369002;0.0552000929773;.573387975280413;0.;0.;
$0.;0;1;0;42;64.2905952400324;3.22170363494524;456.832075435099;-.48248985487292
$;.520406143605934;.704543104175965;.784765810736848;-.02603904885298;.619245177
$803889;.784765810736848;-.02603904885298;.619245177803889;0.;0.;0.;0;1;0;43;58.
$9231943709838;9.01089973769936;464.669681203271;-.51639894717159;.5243855815266
$58;.677016904698115;.735400016216717;-.07983173860175;.672914340507225;.7354000
$16216717;-.07983173860175;.672914340507225;0.;0.;0.;0;1;0;44;53.1562641890597;1
$4.8670213538168;472.230326403577;-.56592880903086;.526271990330802;.63463562404
$1204;.686689932123765;-.10028573516813;.719999797528894;.686689932123765;-.1002
$8573516813;.719999797528894;0.;0.;0.;0;1;0;45;46.8236141645893;20.7559181183297
$;479.331794354991;-.59925175716048;0.5327459239196;0.59756096934717;0.658887890
$95484;-0.0957906108756;.746117220027231;0.65888789095484;-0.0957906108756;.7461
$17220027231;0.;0.;0.;0;1;0;46;40.1161663049925;26.7189636403581;486.02031716186
$3;-.60695581400927;.540821425786125;.582337380949398;.658260541209222;-.0832454
$6113918;.748173277447589;.658260541209222;-.08324546113918;.748173277447589;0.;
$0.;0.;0;1;0;47;33.3188980813318;32.7755961123138;492.541884767964;-.59392307790
$646;.534988667081767;0.600868124986;.673488746844621;-.08196644701366;.73463896
$5368445;.673488746844621;-.08196644701366;.734638965368445;0.;0.;0.;0;1;0;48;26
$.6970790445814;38.7403384702218;499.241136129999;-.60138733472392;.545929610913
$321;.583347352408224;.683086862966899;-.06119547566352;0.72776881727672;.683086
$862966899;-.06119547566352;0.72776881727672;0.;0.;0.;0;1;0;49;19.9694945659659;
$44.8475299003226;505.766911395127;-.61372208609268;.552553591392785;.5639412466
$56936;.694170517060362;-.01094231449493;.719727419928992;.694170517060362;-.010
$94231449493;.719727419928992;0.;0.;0.;0;1;0;50;13.125175225374;51.0096891544576
$;512.056067462534;-.63496782313473;0.54538495435861;.547148165621338;0.70037119
$105509;.051052423381259;.711950732008174;0.70037119105509;.051052423381259;.711
$950732008174;0.;0.;0.;0;1;0;51;6.18543240717579;56.9703554784273;518.0360044207
$81;-.64739696231619;.545543470786674;.532221283552053;.704691576210077;.1085751
$87820136;.701157051599982;.704691576210077;.108575187820136;.701157051599982;0.
$;0.;0.;0;1;0;52;-.92524492839109;62.9623261225445;523.88165096957;-.64322182919
$283;.548580343989487;.534158482697984;0.71240005441233;.143945524170519;.686852
$130042983;0.71240005441233;.143945524170519;.686852130042983;0.;0.;0.;0;1;0;53;
$-7.9828874997173;68.9815310279371;529.742614444729;-.61885599911555;.5704726693
$99156;0.53997980131418;.717630831512483;.145761403152603;.680998974311773;.7176
$30831512483;.145761403152603;.680998974311773;0.;0.;0.;0;1;0;54;-14.77132353379
$3;75.2392343239205;535.665831390437;-.58544988878106;.573479046468397;.57303595
$9594107;.731032780134176;.103963886721475;.674375699908487;.731032780134176;.10
$3963886721475;.674375699908487;0.;0.;0.;0;1;0;55;-21.198843739085;81.5353293939
$216;541.957061911154;-.55412249442471;.583415127976844;.593780304170068;.739896
$307255112;.050775530236042;.670801982733726;.739896307255112;.050775530236042;.
$670801982733726;0.;0.;0.;0;1;0;56;-27.268103778792;87.9254293418888;548.4606908
$17623;-.54159337026716;.577105092789294;.611249812400232;.745266006581351;.0098
$30821960394;.666694783520817;.745266006581351;.009830821960394;.666694783520817
$;0.;0.;0.;0;1;0;57;-33.183149057079;94.2283180801585;555.136493209568;-.5311678
$9948764;.581971168448189;.615767993361901;.752040925068938;-.01050787623633;.65
$9032648325148;.752040925068938;-.01050787623633;.659032648325148;0.;0.;0.;0;1;0
$;58;-38.987320754852;100.587626668056;561.865106069858;-.51469257141662;.586549
$606443968;.625340799971481;.765558103202533;-.02043093118922;.643042275182341;.
$765558103202533;-.02043093118922;.643042275182341;0.;0.;0.;0;1;0;59;-44.8358701
$7374;107.252701220181;568.970972319713;-.48930449319318;.593052981012333;0.6394
$2886598382;.782803192642991;-.03042930270503;.621524914323494;.782803192642991;
$-.03042930270503;.621524914323494;0.;0.;0.;0;1;0;60;-50.394866207698;113.990385
$454102;576.235533711343;-.46740156448831;.600798492948792;.648519042422306;.794
$180423990239;-.03834918765594;.606470769251754;.794180423990239;-.0383491876559
$4;.606470769251754;0.;0.;0.;0;0;0;61;-55.707741206034;120.819560909944;583.6071
$40629694;-.46371285761364;.612151950113942;.640500098091712;.788974891412268;-.
$03667946575707;.613329632019175;.788974891412268;-.03667946575707;.613329632019
$175;0.;0.;0.;0;0;0;62;-60.975757830798;127.773921991665;590.883551256465;-.4722
$1790285403;.618105326146281;.628455295159286;0.77505161190045;-.03644066888141;
$.630846317689173;0.77505161190045;-.03644066888141;.630846317689173;0.;0.;0.;0;
$0;0;63;-66.324494541132;134.775102228225;598.001963937784;-.48480881578439;.623
$379122878599;.613480954306525;.757802226609463;-.03805351100692;.65137371427298
$7;.757802226609463;-.03805351100692;.651373714272987;0.;0.;0.;0;0;0;64;-71.8161
$28420019;141.836380404555;604.951121385078;-.49546197164456;.626836653656247;.6
$01326237816977;.741651610085528;-.04241584870276;0.66944289154219;.741651610085
$528;-.04241584870276;0.66944289154219;0.;0.;0.;0;0;0;65;-77.423717560724;148.93
$085508315;611.756871723517;-.50300071479352;.628165921935835;.593631076878321;.
$727738923207796;-.05007599165861;.684023723790165;.727738923207796;-.0500759916
$5861;.684023723790165;0.;0.;0.;0;0;0;66;-83.123166093371;156.04853749739;618.48
$3243417515;-.50896468179485;.626098663372345;.590724484348528;.716112964091266;
$-.06062192470619;.695346823466778;.716112964091266;-.06062192470619;.6953468234
$66778;0.;0.;0.;0;0;0;67;-88.882527143411;163.133367514656;625.167785013729;-.51
$337061233189;.623181582615576;.589996041921237;.707634885812855;-.0721683067783
$7;.702883065578743;.707634885812855;-.07216830677837;.702883065578743;0.;0.;0.;
$0;0;0;68;-94.690662395987;170.183874169692;631.842839501943;-.51351563559128;.6
$18623604022483;0.59464823933946;.704094907909703;-.08501629714935;.704998290689
$162;.704094907909703;-.08501629714935;.704998290689162;0.;0.;0.;0;0;0;69;-100.4
$9059735896;177.170957758216;638.55913181122;-.51005222242874;.611445980193058;.
$604963258141565;.709686749710135;-.09871887410322;.697566700166842;.70968674971
$0135;-.09871887410322;.697566700166842;0.;0.;0.;0;0;0;70;-107.0715872494;185.06
$0188776644;646.364718986121;-.50291009048813;.605885151018215;.616428929123914;
$.725337256882851;-.10342363252621;.680580205422362;.725337256882851;-.103423632
$52621;.680580205422362;0.;0.;0.;0;0;0;71;-113.56293812856;192.88069821187;654.3
$21323052516;-.50073801066355;.595622821118327;0.62808828968526;.747679949985761
$;-.09096603700099;.657799264594925;.747679949985761;-.09096603700099;.657799264
$594925;0.;0.;0.;0;0;0;72;-119.98392535314;200.518397854436;662.375328936007;-.4
$9830019797862;.583944383586037;.640863378242815;.747638956870403;-.075815006375
$38;.659763650846298;.747638956870403;-.07581500637538;.659763650846298;0.;0.;0.
$;0;0;0;73;-126.38441611572;208.01895805523;670.606993601529;-.67575332814767;.5
$42250623799251;.499321239771227;0.;0.;0.;.747638956870403;-.07581500637538;.659
$763650846298;0.;0.;0.;0;0;0;74;-134.88238084079;214.838053842482;676.8862290936
$95;-.69568285699759;.656256370066402;0.29215225350309;0.;0.;0.;.747638956870403
$;-.07581500637538;.659763650846298;0.;0.;0.;0;0;0;75;-224.01179485193;298.91622
$9862994;714.316156962184;-.69568285699759;.656256370066402;0.29215225350309;0.;
$0.;0.;.747638956870403;-.07581500637538;.659763650846298;0.;0.;0.;0;0;0;SBLT_NO
$DE_IDS;3;15000;4209267;10001;SBLT_POINTS_TYPES;3;0;0;0;SBLT_POINTS_ENTITY_TYPE;
$3;0;0;0;STIFFENER_CREATE;0;COMP_NAME;Retractor;POINTS_NAME;SBPoint;INDEX;2;GENT
$YPE;0;FLIPPED_ENTRY;0;FLIPPED_EXIT;0;LENGTH_1;50.;LENGTH_2;100.;EL_LENGTH;12.;E
$L_OFFSET;5.;NUM_OF_SHELLS;4;EXTEND_SBLTS;0;CREATE_TRIAS_AT_END;0;CREATE_TRIAS_A
$T_START;0;IS_FROZEN;0;IS_MEMBRANE;0;STATUS_ERROR;2;ENTRY_VEC;0.;0.;0.;EXIT_VEC;
$0.;0.;0.;SP_ENTITY;1;EP_ENTITY;2;START_PART_TYPE;0;END_PART_TYPE;0;MAIN_PART_TY
$PE_v14;0;CONTAINS;;STIFFENER_CREATE;0;END_ANCHOR_ELEM_NUM;1073741824;
$ANSA_NAME_COMMENT;10000;ELEMENT_SEATBELT_SENSOR;Time_Sensor;;NO;NO;NO;
$ANSA_NAME_COMMENT;15000015;NODE;SBPoint_2_3;;NO;NO;NO;
$ANSA_NAME_COMMENT;15000020;NODE;SBPoint_1_0;;NO;NO;NO;
$ANSA_NAME_COMMENT;15000609;NODE;SBPoint_1_5;;NO;NO;NO;
$ANSA_NAME_COMMENT;1;SEATBELT;3-Point Seatbelt Entity;;NO;NO;NO;
$ANSA_USER_ATTRIBUTES;SECTION_SHELL;User/cad_material;TEXT;RW;YES;;;
$ANSA_USER_ATTRIBUTES;SECTION_SHELL;User/cad_thickness;TEXT;RW;YES;;;
$ANSA_PART;GROUP;ID;2279;NAME;run.key;BELONGS_HERE;YES;PID_OFFSET;0;COLOR;203;20
$2;97;0;IS_COLOR_ACTIVE;1;PART_TYPE;Undefined;ATTRIBUTES;2;DM/File Type;ANSA;DM/
$Status;WIP;CONTAINS;ANSAPART;2275-2278;
$ANSA_PART;PART;ID;2274;NAME;Default Seatbelt Part;BELONGS_HERE;YES;STUDY_VERSIO
$N;0;PID_OFFSET;0;COLOR;251;232;8;0;IS_COLOR_ACTIVE;1;PART_TYPE;Undefined;ATTRIB
$UTES;2;DM/File Type;ANSA;DM/Status;WIP;CONTAINS;CONSTRAINED_NODAL_RIGID_BODY;15
$000247,15000249,15000471,15000479;ELEMENT_SEATBELT_SLIPRING;12998;SEATBELT;1;SE
$CTION_SEATBELT;10001;SECTION_SHELL;10002;
$ANSA_PART;PART;ID;2275;NAME;NO PID ELMNTs@1;BELONGS_HERE;YES;STUDY_VERSION;0;PI
$D_OFFSET;0;COLOR;143;44;41;0;IS_COLOR_ACTIVE;1;PART_TYPE;Undefined;ATTRIBUTES;2
$;DM/File Type;ANSA;DM/Status;WIP;CONTAINS;ELEMENT_SEATBELT_PRETENSIONER;12000;E
$LEMENT_SEATBELT_RETRACTOR;12000;ELEMENT_SEATBELT_SENSOR;10000;
$ANSA_PART;PART;ID;2276;NAME;JOINTs@1;BELONGS_HERE;YES;STUDY_VERSION;0;PID_OFFSE
$T;0;COLOR;136;145;103;0;IS_COLOR_ACTIVE;1;PART_TYPE;Undefined;ATTRIBUTES;2;DM/F
$ile Type;ANSA;DM/Status;WIP;CONTAINS;CONSTRAINED_JOINT_REVOLUTE;15000007;
$ANSA_PART;PART;ID;2277;NAME;BARs;BELONGS_HERE;YES;STUDY_VERSION;0;PID_OFFSET;0;
$COLOR;166;76;229;0;IS_COLOR_ACTIVE;1;PART_TYPE;Undefined;ATTRIBUTES;2;DM/File T
$ype;ANSA;DM/Status;WIP;CONTAINS;CONSTRAINED_EXTRA_NODES_NODE;9000121;SECTION_BE
$AM_ELFORM_1;99999;
$ANSA_PART;PART;ID;2278;MID;1000;NAME;Seat_Pan;BELONGS_HERE;YES;STUDY_VERSION;0;
$PID_OFFSET;0;COLOR;190;213;2;0;IS_COLOR_ACTIVE;1;PART_TYPE;Undefined;ATTRIBUTES
$;2;DM/File Type;ANSA;DM/Status;WIP;CONTAINS;CONSTRAINED_EXTRA_NODES_NODE;900011
$6,9000118-9000120;
*END
