$
$ANSA_VERSION;22.0.0;
$
$
$ file created by  A N S A  Wed Jun  8 01:54:09 2022
$
*KEYWORD 30M
*NODE
     87012.9387482992623  195.409998578560.0398698083153       0       0
     87118.6441820940694191.58233956818869.1111838684797       0       0
     87223.8647088715983190.25340762484479.1233572770705       0       0
     87328.9413911085118189.25467185096189.4713675170892       0       0
     87434.0311562412675187.75800946642899.7642422344957       0       0
     87539.0040097671837186.302448642709110.051191854259       0       0
     87643.8310440482209184.850511703322120.329869771224       0       0
     87748.7467309516751183.167942817603130.907333100551       0       0
     878 54.101615882933181.242316361307142.567958283498       0       0
     87959.7229474115755179.264906769238155.100339968352       0       0
     88099.3031787989824 -172.3722494845213.614128995638       0       0
     881100.949360262045-166.37508312073223.792146198909       0       0
15000015-202.62254186155279.052889016873703.694814708421       0       0
15000016            -78.           -224.           -130.       0       0
15000017          4.5427           -224.         2.93635       0       0
15000018          57.253           -214.        87.82705       0       0
15000019-184.12941401114262.078176020512694.429927868489       0       0
15000020            -70.            224.           -130.       0       0
15000021            -70.            224.           -130.       0       0
15000022          57.253           -214.        87.82705       0       0
$ ... 660 like lines cut
*CONSTRAINED_JOINT_REVOLUTE_ID
  15000007                                                                      
  15000016  15000606  15000607  15000608                            1.        1.
*CONSTRAINED_NODAL_RIGID_BODY
  15000727                 982                   0         0         0
  15000735                 981                   0         0         0
  15001005                 980                   0         0         0
  15001017                 979                   0         0         0
*ELEMENT_BEAM
15000005   99999150000161500001715000015                                       2
15000006   99999150000171500001815000015                                       2
*ELEMENT_SEATBELT
15000709   100011500002115000897                      0.
15000711   100011500089715000898                      0.
15000712   100011500089815000899                      0.
15000713   100011500089915000900                      0.
15000714   100011500090015000901                      0.
15000715   100011500090115000902                      0.
15000716   100011500090215000903                      0.
15000717   100011500090315000904                      0.
15000718   100011500090415000905                      0.
15000719   100011500090515000906                      0.
15000720   100011500090615000907                      0.
15000721   100011500090715000908                      0.
15000722   100011500090815000909                      0.
15000723   100011500090915000910                      0.
15000724   100011500091015000911                      0.
15000725   100011500091115000912                      0.
15000726   100011500091215000913                      0.
15000728   100011500091415000915                      0.
15000729   100011500091515000916                      0.
15000730   100011500091615000917                      0.
$ ... 21 like lines cut
*ELEMENT_SHELL_BETA
     812   10002     870     8711500066015000659
              0.              0.              0.              0.      0.17784458
     813   10002     871     8721500066115000660
              0.              0.              0.              0.       359.82254
     814   10002     880     8811500098515000984
              0.              0.              0.              0.       353.75067
15000479   10002     872     8731500066215000661
              0.              0.              0.              0.       0.1770224
15000480   10002     873     8741500066315000662
              0.              0.              0.              0.       359.82343
15000481   10002     874     8751500066415000663
              0.              0.              0.              0.        359.8239
15000482   10002     875     8761500066515000664
              0.              0.              0.              0.       0.1755518
15000483   10002     876     8771500066615000665
              0.              0.              0.              0.       0.1750005
15000484   10002     877     8781500066715000666
              0.              0.              0.              0.      0.17441954
15000485   10002     878     8791500066815000667
              0.              0.              0.              0.      0.24016105
$ ... 956 like lines cut
*ELEMENT_SEATBELT_PRETENSIONER
     12000         7     10000                              
     12000        0.     10012
*ELEMENT_SEATBELT_RETRACTOR
     12000  15000020  15000709     10000                                        
        0.       0.1     10011     10011        4.
*ELEMENT_SEATBELT_SENSOR
     10000         3         0
     0.001
*ELEMENT_SEATBELT_SLIPRING
     12998  15000734  15000991        0.  15000018     1.E20        0.         0
        0.                   0        0.                              
*CONSTRAINED_EXTRA_NODES_NODE
$ANSA_ID;9000116;
      1000  15000015
$ANSA_ID;9000118;
      1000  15000020
$ANSA_ID;9000119;
      1000  15000606
$ANSA_ID;9000120;
      1000  15000608
$ANSA_ID;9000121;
     99999  15000607
*PART
1D Belt
$      PID|    SECID|      MID|         |     HGID|
     10001     10001     10001                    
*SECTION_SEATBELT_TITLE
1D Belt
$    SECID|     AREA|    THICK|
     10001                    
*PART
2D Belt
$      PID|    SECID|      MID|         |     HGID|     GRAV|   ADPOPT|     TMID|
     10002     10002     10002                             0         0          
*SECTION_SHELL_TITLE
2D Belt
$    SECID|   ELFORM|     SHRF|      NIP|    PROPT|  QR/IRID|    ICOMP|
     10002         9    0.8333        1.        1.         0         0
$       T1|       T2|       T3|       T4|     NLOC|    MAREA|     IDOF|   EDGSET|
      1.25      1.25      1.25      1.25        0.                  0.          
*PART
Buckle
$      PID|    SECID|      MID|         |     HGID|     GRAV|         |     TMID|
     99999     99999     99999                             0                    
*SECTION_BEAM_TITLE
Buckle
$    SECID|   ELFORM|     SHRF|  QT/IRID|      CST|         |      NSM|
     99999         1   0.83333         2        0.                  0.
$      TS1|      TS2|      TT1|      TT2|    NSLOC|    NTLOC|
        1.        1.        1.        1.        0.        0.
*MAT_SEATBELT_TITLE
Default MAT_B01 MAT_SEATBELT
$      MID|     MPUL|    LLCID|    ULCID|     LMIN|      CSE|     DAMP|        E|
     10001   0.00055     10001     10001        1.        0.        0.        0.
*MAT_FABRIC_TITLE
Default MAT34 MAT_FABRIC
$      MID|       RO|       EA|       EB|         |     PRBA|     PRCA|
     10002   9.26E-6      2.48        0.                  0.        0.
$      GAB|                   |      CSE|       EL|      PRL|   LRATIO|     DAMP|
        0.                            0.        0.        0.        0.      0.05
$     AOPT|      FLC|      FAC|      ELA|     LNRC|     FORM|    FVOPT|TSRFAC +/|
       0.0        0.        0.        0.       0.0       0.0       0.0         0
$         |   RGBRTH|    A0REF|                             |       X0|       X1|
                  0.         0                                      0.        0.
$                                                           |     BETA|   ISREFG|
                                                                    0.         0
*MAT_RIGID_TITLE
Default MAT20 MAT_RIGID
$      MID|       RO|        E|       PR|        N|   COUPLE|        M| ALIAS_RE|
     99999   7.85E-6      210.       0.3        0.        0.        0.          
$      CMO|     CON1|     CON2|
       0.0        0.        0.
$       A1|       A2|       A3|       V1|       V2|       V3|
        0.        0.        0.        0.        0.        0.
*DEFINE_CURVE
     10001         0        1.        1.        0.        0.         0         0
                 -1.              -145.7
                  0.                  0.
                  1.               145.7
*DEFINE_CURVE
     10011         0        1.        1.        0.        0.         0         0
                  0.               0.001
                100.              10000.
*DEFINE_CURVE
     10012         0        1.        1.        0.        0.         0         0
                  0.               0.001
               5000.               0.001
*SET_NODE_LIST
       979                                        
  15001258  15000983  15001048  15001113  15001178  15001243
*SET_NODE_LIST
       980                                        
  15001257       880  15000984  15001049  15001114  15001179
*SET_NODE_LIST
       981                                        
  15000914  15000658  15000717  15000776  15000835  15000894
*SET_NODE_LIST
       982                                        
  15000913       870  15000659  15000718  15000777  15000836
$ANSA_COLOR;10001;SECTION_SEATBELT;0.69803923368454;.831372559070587;.2274509817
$36183;1.;
$ANSA_COLOR;10002;SECTION_SHELL;.705882370471954;.701960802078247;.1490196138620
$38;1.;
$ANSA_COLOR;99999;SECTION_BEAM_ELFORM_1;.862745106220245;.729411780834198;.50196
$0813999176;1.;
$ANSA_COLOR;10001;MAT_B01 MAT_SEATBELT;.811764717102051;.364705890417099;.694117
$665290833;1.;
$ANSA_COLOR;10002;MAT34 MAT_FABRIC;.819607853889465;0.23137255012989;0.611764729
$02298;1.;
$ANSA_COLOR;99999;MAT20 MAT_RIGID;.980392158031464;0.26274511218071;.96470588445
$6635;1.;
$ANSA_SEATBELT;ID;1;NAME;3-Point Seatbelt Entity;COLOR;194;16;254;100;DISABLE_P2
$W;0;PROP_CONTAINS;SECTION_SHELL(305121,406001,456001,506001,556001,606001,65600
$1,705111,755111);PROP_NAMES;9;UX-Soft-UpperArm-Skin-L;TX-Soft-Skin-L;TX-Soft-Sk
$in-R;AB-Soft-Skin-L;AB-Soft-Skin-R;PE-Soft-Skin-L;PE-Soft-Skin-R;LX-Soft-Thigh-
$Pelvis-connect-Skin-L;LX-Soft-Thigh-Pelvis-connect-Skin-R;PROP_IDS;9;305121;406
$001;456001;506001;556001;606001;656001;705111;755111;CONTACT_NAME;Default Seatb
$elt Contact;CREATE_CNCT;1;AUTO_RECREATE;0;USE_REAL_THICKNESS;0;THICKNESS_FACTOR
$;1.;APPLY_CONSTANT_WIDTH;1;SMOOTH_BELT;1;UNFOLD_BELT;0;CHECK_QUALITY;1;BELT_TYP
$E;1;KEEP_ID_RANGE;1;N_RBODY_CONS_SET;0;MAT_ORIENT;0;NUM_OF_COMPONENTS;3;COMP_NA
$ME;Lap;POINTS_NAME;SBPoint;INDEX;0;GENTYPE;0;FLIPPED_ENTRY;0;FLIPPED_EXIT;0;LEN
$GTH_1;220.075;LENGTH_2;87.716;EL_LENGTH;11.40175;EL_OFFSET;4.968;NUM_OF_SHELLS;
$4;EXTEND_SBLTS;0;CREATE_TRIAS_AT_END;0;CREATE_TRIAS_AT_START;0;IS_FROZEN;0;IS_M
$EMBRANE;0;STATUS_ERROR;1;PSHELL_NAME;2D Belt;PSHELL_ID;10002;PSBLT_ID;12998;SBL
$T_POINTS;6;0;SBPoint_1_0;-70.;224.;-130.;1;SBPoint_1_1;82.2523940822791;182.663
$555702585;152.88158546881;2;SBPoint_1_2@_1;151.589155602787;105.788314800685;22
$8.682357828332;3;SBPoint_1_3@_1;179.351317533917;-8.077670355E-15;232.805684699
$063;4;SBPoint_1_4;134.403922444983;-139.00728948501;214.193906741925;5;SBPoint_
$1_5;57.253;-214.;87.82705;ENTRY_VEC;0.;0.;0.;EXIT_VEC;0.;0.;0.;SP_ENTITY;3;EP_E
$NTITY;1;START_PART_TYPE;0;END_PART_TYPE;0;MAIN_PART_TYPE_v14;0;CONTAINS;CONSTRA
$INED_NODAL_RIGID_BODY(15000727,15000735) ELEMENT_SHELL(812-813,15000479-1500070
$8) ELEMENT_SEATBELT(15000709,15000711-15000726,15000728-15000730,15000734) ELEM
$ENT_SEATBELT_SLIPRING(12998) ELEMENT_SEATBELT_RETRACTOR(12000) NODE(870-879,150
$00018,15000020-15000022,15000610-15000895,15000898-15000916);SBLT_PATH;82;1;-70
$.;224.;-130.;0.;0.;0.;0.;0.;0.;-.14531154892422;.964372081063118;.2210679601734
$11;0.;0.;0.;0;0;0;2;-63.051095279279;222.239143755702;-117.19179947987;-.033821
$27083145;0.00961307143555;-.06083584114081;-.00842085219172;.068031205022995;.0
$15431573538489;-.14531154892422;.964372081063118;.221067960173411;0.;0.;0.;0;0;
$0;3;-57.572679064355;220.891947053239;-107.28362508276;-.06009370973727;.017080
$526849822;-0.1080932587471;-.01496218902807;.120877997402977;.027418854413631;-
$.14531154892422;.964372081063118;.221067960173411;0.;0.;0.;0;0;0;4;-52.09426284
$9431;219.544750350777;-97.375450685659;-.08636614864308;.024547982264089;-.1553
$5067635334;-.02150352586442;.173724789782922;.039406135288763;-.14531154892422;
$.964372081063118;.221067960173411;0.;0.;0.;0;0;0;5;-46.615846634507;218.1975536
$48315;-87.467276288555;-0.1126385875489;.032015437678357;-0.2026080939596;-.028
$04486270077;.226571582162878;.051393416163899;-.14531154892422;.964372081063118
$;.221067960173411;0.;0.;0.;0;0;0;6;-41.137430419582;216.850356945853;-77.559101
$89145;-.13891102645472;.039482893092627;-.24986551156586;-.03458619953712;.2794
$18374542841;.063380697039036;-.14531154892422;.964372081063118;.221067960173411
$;0.;0.;0.;0;0;0;7;-35.659014204658;215.50316024339;-67.650927494346;-.165183465
$36054;.046950348506895;-.29712292917212;-.04112753637347;.332265166922799;.0753
$67977914172;-.14531154892422;.964372081063118;.221067960173411;0.;0.;0.;0;0;0;8
$;-30.180597989734;214.155963540928;-57.742753097242;-.19145590426635;.054417803
$921164;-.34438034677838;-.04766887320982;.385111959302755;.087355258789307;-.14
$531154892422;.964372081063118;.221067960173411;0.;0.;0.;0;0;0;9;-24.70218177481
$;212.808766838466;-47.834578700138;-.21772834317217;.061885259335433;-.39163776
$438464;-.05421021004617;.437958751682712;.099342539664443;-.14531154892422;.964
$372081063118;.221067960173411;0.;0.;0.;0;0;0;10;-19.223765559885;211.4615701360
$03;-37.926404303034;-.24400078207799;.069352714749702;-0.4388951819909;-.060751
$54688252;.490805544062672;.111329820539579;-.14531154892422;.964372081063118;.2
$21067960173411;0.;0.;0.;0;0;0;11;-13.745349344961;210.114373433541;-28.01822990
$593;-0.2702732209838;0.07682017016397;-.48615259959716;-.06729288371887;.543652
$336442629;.123317101414715;-.14531154892422;.964372081063118;.221067960173411;0
$.;0.;0.;0;0;0;12;-8.2669331300368;208.767176731079;-18.110055508826;-.296545659
$88962;.084287625578239;-.53341001720342;-.07383422055522;.596499128822586;0.135
$30438228985;-.14531154892422;.964372081063118;.221067960173411;0.;0.;0.;0;0;0;1
$3;-2.7885169151126;207.419980028616;-8.2018811117215;-.32281809879544;.09175508
$0992508;-.58066743480968;-.08037555739157;.649345921202546;.147291663164987;-.1
$4531154892422;.964372081063118;.221067960173411;0.;0.;0.;0;0;0;14;2.68989929981
$163;206.072783326154;1.70629328538257;-.34909053770125;.099222536406777;-.62792
$485241594;-.08691689422792;.702192713582503;.159278944040123;-.14531154892422;.
$964372081063118;.221067960173411;0.;0.;0.;0;0;0;15;8.16831551473587;204.7255866
$23692;11.6144676824867;-.37536297660707;.106689991821046;-0.6751822700222;-.093
$45823106427;.755039505962461;.171266224915258;-.14531154892422;.964372081063118
$;.221067960173411;0.;0.;0.;0;0;0;16;13.6467317296601;203.37838992123;21.5226420
$795908;-.40163541551289;.114157447235314;-.72243968762846;-.09999956790062;.807
$886298342419;.183253505790394;-.14531154892422;.964372081063118;.22106796017341
$1;0.;0.;0.;0;0;0;17;19.1251479445843;202.031193218767;31.430816476695;-.4279078
$5441871;.121624902649583;-.76969710523472;-.10654090473697;.860733090722377;0.1
$9524078666553;-.14531154892422;.964372081063118;.221067960173411;0.;0.;0.;0;0;0
$;18;24.6035641595086;200.683996516305;41.3389908737991;-.45418029332452;.129092
$358063852;-.81695452284098;-.11308224157332;.913579883102335;.207228067540666;-
$.14531154892422;.964372081063118;.221067960173411;0.;0.;0.;0;0;0;19;32.80108679
$77472;199.879983399007;49.7650662506309;-.48133176110134;.136809661195935;-.865
$79308921662;-.11984243985434;.968194834746385;.219616421419027;-.14531154892422
$;.964372081063118;.221067960173411;0.;0.;0.;0;0;0;20;38.4227854370908;198.26994
$2032986;59.9307533196978;-.46232024141034;.137032797122741;-.87606038387477;-.1
$7491020124244;.954480858647724;.241604017508463;-.15722492945727;.9606673129746
$69;.228907482051563;0.;0.;0.;0;0;0;21;43.8604498720842;196.661024578021;70.2235
$61858923;-.44721729625405;.140081132670414;-.88338445626667;-.17158035865245;.9
$55876960581685;.238439820764853;-.16349334941314;.959009286443188;.231454343690
$931;0.;0.;0.;0;0;0;22;49.1424789719057;195.021726106779;80.5962423935896;-0.435
$1195066298;.139662566127786;-.88945110384686;-.17002855206742;.957352979595097;
$.233502564233873;-.16850140186992;.958192250568039;.231246380553789;0.;0.;0.;0;
$0;0;23;54.337403703981;193.395322510883;91.04721053116;-.42535086849388;0.13750
$417204789;-.89447965390716;-0.1744591101868;.957355098895273;.230130057586992;-
$.16965889207923;.958447794137653;.229333133783835;0.;0.;0.;0;0;0;24;59.44979484
$10496;191.798085004117;101.567464622843;-.41728204389311;.140159840017049;-.897
$87853582952;-.16960697554906;.958640007213642;.228468291951235;-.16228068998851
$;.959418936201431;.230608504862607;0.;0.;0.;0;0;0;25;64.444622994634;190.163749
$721378;112.133030912746;-.40601432659073;.152192427272172;-.90100933883331;-.15
$708359216137;.959645086375164;.232882052229115;-.14995138280766;.96041442494053
$6;.234773753133115;0.;0.;0.;0;0;0;26;69.3750084945338;188.404386875189;122.7085
$41356708;-.39561768122961;.160385635218717;-.90408146772852;-.14818241380632;.9
$60372865213441;.235215080248714;-0.143606432629;.961408257520747;.2346728677936
$44;0.;0.;0.;0;0;0;27;74.2545304572681;186.566404941025;133.286975853134;-.43438
$881963083;.155216982461489;-.88675539384805;-0.1424041582904;.960346925697585;.
$237856941853999;-.14450086179942;.960953121924044;.235984318130801;0.;0.;0.;0;0
$;0;28;79.0359789078992;184.667652924145;143.815820563628;-0.5299269859898;.1273
$14186179194;-.82412872976957;-0.1386253970414;0.94941950567266;.235807712464406
$;-.15049543174876;.959398539753146;.238548877470188;0.;0.;0.;0;1;0;29;83.675143
$6797684;182.760393914842;154.222159434389;-.56488236327299;.126519823841189;-.7
$9972230781907;-.13592892600968;0.94646002651508;.245747563707311;-.150851807002
$16;.956206075143341;.250825983867599;0.;0.;0.;0;1;0;30;88.7347293245442;180.823
$764597204;164.479377207142;-.57805680060583;.191888458913015;-0.7927495607696;-
$.10819824414019;.945024596323542;.307643241108202;-0.1318575223571;.94256914669
$5802;.306882709670964;0.;0.;0.;0;1;0;31;95.2711550253544;178.504349077521;173.9
$03067090697;-.58234454124946;.242573551410324;-.77560730324878;-.09071343403606
$;.928821684228064;.358601635820075;-.14052516617719;.921827678691388;.361229024
$954144;0.;0.;0.;0;1;0;32;102.34421245856;175.71488920172;182.917337595727;-.588
$82572011298;.317342736364281;-.74311189527994;-.07865458034519;.892608915105785
$;.443508975738578;-.15926489058576;.880508839871282;.446473826259987;0.;0.;0.;0
$;1;0;33;109.425031244541;172.066836317194;191.515186943121;-0.5894441453314;.36
$0363411113795;-.72295425227162;-.10195792686589;.854616638779385;.5091208317121
$65;-.18776987270632;.831625238821182;.522629827946573;0.;0.;0.;0;1;0;34;116.283
$040263855;167.81777169542;200.021123917827;-.58144593873039;0.40712395772729;-.
$70409849461596;-.11283019656792;.816773639116775;.565450400944636;-.21707353008
$455;.784162794938867;.581349975118513;0.;0.;0.;0;1;0;35;122.957273576729;162.91
$0220358539;208.441692040609;-.57172182086234;.465515538314849;-0.6752225266039;
$-.11360535290512;.770207644634372;.627192175679943;-.24256213642876;0.723180074
$63337;.646663892315311;0.;0.;0.;0;1;0;36;129.467170843341;157.319975094497;216.
$485811546128;-0.5600914297801;.536334689436549;-.63129643593169;-.1039759961360
$9;.710512535107532;.695883200335192;-.21855168253623;.646058099682359;.73133035
$8931859;0.;0.;0.;0;1;0;37;135.921606007612;150.988565617647;223.914719330381;-.
$54836613272352;.587877793865857;-.59406767557176;-.09648288797987;.661245505006
$478;.743416137593048;-.20318430073611;.603956812436013;.770683014375242;0.;0.;0
$.;0;1;0;38;142.606645143405;144.264112151705;230.763516730104;-.53956882644375;
$.652182800908103;-.53092625914309;-.07951415914323;.588420177640255;.8036160836
$86396;-.20694921046947;.537325323008891;.817590069374289;0.;0.;0.;0;1;0;39;149.
$347546895886;136.825324847571;236.87729391971;-.51500987281878;.693905809154916
$;-.50318026763155;-.09035338361201;.539802695915933;.836887171825011;-0.2561971
$139063;.476168634016328;.841205367793802;0.;0.;0.;0;1;0;40;155.51098785598;128.
$680478007591;242.796249537919;-.46868256964178;.729511818098465;-.4881685992439
$6;-.11033164441851;.500048594142378;.853192684482993;-.25202278793364;.39815548
$2093922;.882018552208916;0.;0.;0.;0;1;0;41;161.986004784889;120.70694777682;248
$.306788872304;-.41119717466852;.787393682725026;-.43467677110536;-.079012100647
$43;.444478453409031;.879893070660087;-0.2361933374568;.354569633982568;.9047060
$74920737;0.;0.;0.;0;1;0;42;168.226182423389;112.387022667303;253.069955134818;-
$.34377117143308;.880720885117992;-.32414460052391;-.03886032853281;.33155247332
$4127;.942061808024967;-.18175576922756;.246362772137923;.951982260789043;0.;0.;
$0.;0;1;0;43;172.540445037443;102.372380082533;256.772507505887;-.25131223987306
$;.941937336400473;-.22224975247545;.056144163914249;.243423485364187;.968189846
$942301;-.04609970264326;.135301814447039;.989731396098731;0.;0.;0.;0;1;0;44;175
$.272927337679;91.5022950593563;259.347024328452;-.16999958767617;.9536547306856
$27;-.24753008804885;.244420785501523;.284156164184299;.926899187414413;.1701205
$28133628;.138646188022448;.975620951217418;0.;0.;0.;0;1;0;45;177.431179336753;8
$0.5991553646111;262.120435654306;-0.134896067971;.947090357303292;-.28989404892
$671;.479357213712167;.318450419007494;.817325911708478;.409684948379239;.201015
$197617424;.889803985942032;0.;0.;0.;0;1;0;46;179.296851929096;69.4893055905754;
$265.354901443555;-.12769380714413;.943290160681281;-.30139095106054;0.659795191
$97999;.307652342015624;.683343897385967;.585386580516819;.234436188665452;.7761
$19980927461;0.;0.;0.;0;1;0;47;181.294497350358;58.2404172703417;268.49052612793
$3;-.12451000792703;.950712299386295;-.27355376222161;.768993584403256;.26646172
$9358791;.576051467351415;.717340675582203;.191188705481199;.669977039943678;0.;
$0.;0.;0;1;0;48;183.359244252267;46.7064315254346;271.069442685222;-.10108955592
$655;.968601985139762;-0.217047873908;0.84825339376467;.197604616438081;.4867620
$35322369;.824554246427211;.128538513964677;.550988334837142;0.;0.;0.;0;1;0;49;1
$84.994216620037;34.9250637765747;273.002998975892;-.04906334940519;.98457976879
$1437;-0.1616837235779;.898514471861913;.113984427511052;0.42145634884049;.89421
$9470977719;.060995231480794;.443453627182068;0.;0.;0.;0;1;0;50;185.819449357588
$;23.0379152085089;274.458585701809;-.00482269945322;.991898350173968;-.12461479
$943594;.924813992894478;.051747711130942;.376105964703562;.929325245582697;.022
$643701516687;.368567294675318;0.;0.;0.;0;1;0;51;185.986527569333;11.17741186720
$25;275.67961827173;0.03045924187809;.994249852389653;-0.1020036617285;.93690768
$5928968;.007134556164952;.349311276019273;.938227154452186;0.01044358325782;0.3
$4586231106799;0.;0.;0.;0;1;0;52;185.672794050676;-.64416898900928;276.762552329
$432;.065753077110496;.994539956038951;-.08038287852821;.936998800799767;-.03385
$947173765;.347536159185462;0.9317791681347;-.02272772349581;.362313444982248;0.
$;0.;0.;0;1;0;53;184.937905636398;-12.400419422258;277.598520403358;.08059037469
$7381;.995288718422155;-.05252048807989;.933027664733279;-.05681151736058;.35508
$4034445344;.923563781255203;-0.0475899357333;.380480143989791;0.;0.;0.;0;1;0;54
$;184.039653788519;-24.122716637008;278.083285460498;.118803102678323;.992809181
$149331;-.01449559418711;.928494513094558;-.10591041615191;.355914726493677;.913
$399977989046;-.09682824526021;.395379275037829;0.;0.;0.;0;1;0;55;182.6572649147
$41;-35.758311857317;278.22716754375;.175077460255349;.983815935016007;.03796580
$1344099;.919198304400914;-.17714977104215;0.35168131732974;.897207019880556;-.1
$6596337213984;.409237977935852;0.;0.;0.;0;1;0;56;180.629131139719;-47.238522062
$382;277.745312313194;.257447118671895;.957308888310612;.130211181734124;.891262
$310897431;-.28734216903336;.350371587701591;.860854494595096;-.26051240154233;.
$437107341253915;0.;0.;0.;0;1;0;57;177.687236831896;-58.466071921886;276.0210029
$46909;.329305877310213;.917516501889355;.222365798512604;.840305533434308;-.392
$20623711406;.373880085678535;.790695793101491;-.33618280996217;.511645659668431
$;0.;0.;0.;0;1;0;58;173.914057189952;-69.199282973557;273.242014103268;.32790537
$6285743;.896595659587567;.297156858364217;0.78751161227858;-.43318988552761;0.4
$3804097372759;.680704362330909;-.35485410395367;.640874508785388;0.;0.;0.;0;1;0
$;59;170.236634357091;-79.517707186231;269.649145139472;.314878593738736;.870808
$096376183;.377538330519389;.692088023572309;-.48286096181565;.536516467317454;.
$498444956747711;-.37231149511688;.782902788152276;0.;0.;0.;0;1;0;60;166.6171835
$1965;-89.588309292407;265.254644343742;.333150482025823;0.83677422804117;.43439
$2162500747;.516778060686207;-.54741074321023;.658148020920401;.265315783335511;
$-.42519160746169;.865343649689075;0.;0.;0.;0;1;0;61;162.622754209917;-99.365047
$348042;260.259327320107;.400434596053406;0.79369346181114;.456284844608603;.337
$428760812687;-.59091332129173;.731748805638996;.075575346960982;-.4568378012076
$5;.886333791705749;0.;0.;0.;0;1;0;62;157.443674458096;-108.78288167413;255.0423
$00290094;.445721972967368;.754827417280956;.479265158566112;.221526482606763;-.
$61204434904337;.757928315600043;-.03890342338367;-.48167729591365;.875484726451
$777;0.;0.;0.;0;1;0;63;151.625440738633;-117.75011159392;249.501605396282;.44643
$9555288577;0.72830630756414;.519105280890532;.137872326874219;-.62929117263619;
$.764324857856177;-.10180923058882;-.52341796219489;.845971936543203;0.;0.;0.;0;
$1;0;64;145.960196122197;-126.41328486434;243.390881715755;.427747494142077;.703
$380214021087;.567703549105223;.063130877529054;-.64977542464847;.75749940839128
$8;-.14228510398806;-.55800793768119;.817546384413687;0.;0.;0.;0;1;0;65;140.8520
$2887909;-134.83463525441;236.592852056387;.402806666404041;.709453404994852;.57
$8291023341657;.005650521870334;-.63373079760023;.773531641118473;-.158735610591
$23;-.57120211553162;.805314316985878;0.;0.;0.;0;1;0;66;136.0347446809;-143.2856
$5136776;229.704382691877;0.38111483945404;.687837179864214;.617757871025787;-.0
$4816754625092;-.65250772844795;.756245228661851;-.15667085015205;-.634071361438
$32;.757236920201591;0.;0.;0.;0;1;0;67;131.516066011176;-151.38043121355;222.432
$191258661;.371662460884988;.608134811442674;.701430931535635;-.07636861801599;-
$.73296583639684;.675940235739713;-0.1641939361979;-0.6989667261498;0.6960501900
$3752;0.;0.;0.;0;1;0;68;127.083378412387;-158.50928931819;214.20109718398;.37757
$0252735499;0.55689289064308;.739754292659449;-.11421693735108;-.76477961098615;
$.634028421089821;-.19343374568721;-.73103177665229;.654351532094187;0.;0.;0.;0;
$1;0;69;122.725873999051;-165.10731973248;205.457419838139;.380906759826688;.490
$247969305591;.783941089588455;-.16312784996389;-.79892616112598;.57888077932309
$8;-.21867633920004;-.78918782329722;.573901767059025;0.;0.;0.;0;1;0;70;118.2126
$12001069;-170.88338522277;196.213912805687;.396021111470964;.437399128620069;.8
$07269142315187;-.17162535667855;-.82839916525313;.533041974459298;-.19432770820
$047;-.83953314478667;.507366574214499;0.;0.;0.;0;1;0;71;113.41127782812;-175.98
$223740141;186.743897646716;.397442231314187;.323894306515132;.858542302052632;-
$.19441172024659;-.88465182794662;.423742799089524;-.20369456488736;-.8758761276
$5664;.437435176039335;0.;0.;0.;0;1;0;72;108.657153266086;-179.77979957958;176.6
$34515572889;.426072361118314;.333859467018206;0.84082641250822;-.17773532788613
$;-.88040691634056;.439639251522166;-.21054399505089;-.86536278098554;.454773002
$093343;0.;0.;0.;0;1;0;73;103.662091062174;-183.73446713422;166.695649399241;.46
$3947728084203;.341588046491982;.817332864778532;-.16906327588867;-.871542799185
$98;.460210449338824;-.20173387349402;-.86079479775193;.467264122791724;0.;0.;0.
$;0;1;0;74;98.3119970812516;-187.74402734525;157.136962170672;.481425249816644;.
$341561285454103;.807138457687497;-.15907876589946;-.87154121209267;.46369896983
$2979;-.18754329239196;-.86356149017836;.468069509965893;0.;0.;0.;0;0;0;75;92.85
$10081644875;-191.72577580826;147.77963006202;0.48598702387224;.347873613835397;
$.801687913288531;-.14206807543697;-.87366096312979;.465226968621528;-.167875811
$56833;-0.8713124933061;.461120646793196;0.;0.;0.;0;0;0;76;87.3513140234648;-195
$.77112410803;138.503310878134;0.49202943405764;.376045839322144;0.7851571010277
$8;-.10058230821969;-.87128783370296;.480328867193427;-.12295848095578;-.8753505
$4137619;.467592388382719;0.;0.;0.;0;0;0;77;81.743293878988;-200.11319555173;129
$.452716734094;-0.4763104818776;-.21755622828419;-.85193734792722;.1743535000075
$22;.926297931766837;-.33402489584548;-.12295848095578;-.87535054137619;.4675923
$88382719;0.;0.;0.;0;0;0;78;76.4085258925559;-202.55463401965;119.897635920569;-
$.37009842356479;-.16904355496709;-.66196458285135;.135474565332723;.71974356505
$2024;-.25954097608033;-.12295848095578;-.87535054137619;.467592388382719;0.;0.;
$0.;0;0;0;79;70.9418535046201;-205.86041780795;110.720110018005;-.26417410110943
$;-0.1206623058581;-.47250646721661;.096700956397611;.513748768491126;-.18525883
$843729;-.12295848095578;-.87535054137619;.467592388382719;0.;0.;0.;0;0;0;80;65.
$4751811166842;-209.16620159626;101.542584115441;-.15824977865405;-.072281056749
$09;-.28304835158183;.057927347462489;.307753971930171;-.11097670079424;-.122958
$48095578;-.87535054137619;.467592388382719;0.;0.;0.;0;0;0;81;61.3840082676792;-
$211.60314373941;94.6805057278923;-.07912928448065;-.03614253587403;-.1415320370
$4038;.028965282577671;.153885533376625;-0.0554914326109;-.12295848095578;-.8753
$5054137619;.467592388382719;0.;0.;0.;0;0;0;82;57.253;-214.;87.82705;0.;0.;0.;0.
$;0.;0.;-.12295848095578;-.87535054137619;.467592388382719;0.;0.;0.;0;0;0;SBLT_N
$ODE_IDS;6;15000020;6202984;6202051;6220366;6222109;15000609;SBLT_POINTS_TYPES;6
$;0;0;0;0;0;0;SBLT_POINTS_ENTITY_TYPE;6;0;0;0;0;0;0;STIFFENER_CREATE;0;COMP_NAME
$;Shoulder;POINTS_NAME;SBPoint;INDEX;1;GENTYPE;0;FLIPPED_ENTRY;0;FLIPPED_EXIT;0;
$LENGTH_1;152.963517712671;LENGTH_2;128.117881754054;EL_LENGTH;10.3693720570427;
$EL_OFFSET;12.7348709828635;NUM_OF_SHELLS;4;EXTEND_SBLTS;0;CREATE_TRIAS_AT_END;0
$;CREATE_TRIAS_AT_START;0;IS_FROZEN;0;IS_MEMBRANE;0;STATUS_ERROR;1;PSHELL_NAME;2
$D Belt;PSHELL_ID;10002;PSBLT_ID;12998;SBLT_POINTS;3;0;SBPoint_1_5;57.253;-214.;
$87.82705;1;SBPoint_2_2;71.1720544009733;-6.0646086810186;435.447243822471;2;SBP
$oint_2_3;-202.76173578504;279.180568848438;703.675305066111;ENTRY_VEC;0.;0.;0.;
$EXIT_VEC;0.;0.;0.;SP_ENTITY;1;EP_ENTITY;4;START_PART_TYPE;0;END_PART_TYPE;0;MAI
$N_PART_TYPE_v14;0;CONTAINS;CONSTRAINED_NODAL_RIGID_BODY(15001005,15001017) ELEM
$ENT_SHELL(814,15000736-15000990) ELEMENT_SEATBELT(15000991-15001004,15001006-15
$001010,15001016) NODE(880-881,15000605,15000921-15001262);SBLT_PATH;87;1;57.253
$;-214.;87.82705;0.;0.;0.;0.;0.;0.;.150877248012944;-.92536292318215;.3477635927
$34828;0.;0.;0.;0;0;0;2;60.3845622299559;-212.29569396663;97.5642228854896;-.015
$33166699253;-.03014257284643;-.05740176806462;.005323540782152;-.05937097405109
$;.029754748214067;.150877248012944;-.92536292318215;.347763592734828;0.;0.;0.;0
$;0;0;3;63.5161244599118;-210.59138793326;107.301395770979;-.03066333398506;-.06
$028514569285;-.11480353612924;.010647081564304;-.11874194810217;.05950949642813
$3;.150877248012944;-.92536292318215;.347763592734828;0.;0.;0.;0;0;0;4;66.647686
$6898676;-208.88708189989;117.038568656469;-0.0459950009776;-.09042771853928;-.1
$7220530419386;.015970622346457;-.17811292215326;0.0892642446422;.15087724801294
$4;-.92536292318215;.347763592734828;0.;0.;0.;0;0;0;5;69.7792489198235;-207.1827
$7586652;126.775741541958;-.06132666797013;-0.1205702913857;-.22960707225848;.02
$1294163128609;-.23748389620434;.119018992856266;.150877248012944;-.925362923182
$15;.347763592734828;0.;0.;0.;0;0;0;6;72.9108111497794;-205.47846983316;136.5129
$14427448;-.07665833496266;-.15071286423213;-.28700884032309;0.02661770391076;-.
$29685487025542;.148773741070329;.150877248012944;-.92536292318215;.347763592734
$828;0.;0.;0.;0;0;0;7;76.0423733797353;-203.77416379979;146.250087312938;-.09199
$000195519;-.18085543707855;-.34441060838771;.031941244692913;-.35622584430651;.
$178528489284396;.150877248012944;-.92536292318215;.347763592734828;0.;0.;0.;0;0
$;0;8;79.1739356096911;-202.06985776642;155.987260198427;-.10732166894772;-.2109
$9800992498;-.40181237645233;.037264785475065;-.41559681835759;.208283237498461;
$.150877248012944;-.92536292318215;.347763592734828;0.;0.;0.;0;0;0;9;82.30549783
$9647;-200.36555173305;165.724433083917;-.12265333594025;-.24114058277141;-.4592
$1414451695;.042588326257217;-.47496779240868;.238037985712529;.150877248012944;
$-.92536292318215;.347763592734828;0.;0.;0.;0;0;0;10;85.8031315541254;-197.78832
$204973;175.139756892269;-.13798500293278;-.27128315561783;-.51661591258156;.047
$911867039369;-.53433876645976;.267792733926593;.150877248012944;-.9253629231821
$5;.347763592734828;0.;0.;0.;0;0;0;11;89.1293903501609;-194.75376309231;184.4805
$98996336;-.15331666992532;-.30142572846426;-.57401768064618;.053235407821521;-.
$59370974051084;.297547482140658;.150877248012944;-.92536292318215;.347763592734
$828;0.;0.;0.;0;0;0;12;92.4556491461964;-191.71920413488;193.821441100403;-.1686
$4833691785;-.33156830131069;-.63141944871081;.058558948603674;-.65308071456194;
$.327302230354732;.150877248012944;-.92536292318215;.347763592734828;0.;0.;0.;0;
$0;0;13;96.0382169638845;-188.21643848416;202.899971680028;-.18398000391038;-.36
$171087415712;-.68882121677543;.063882489385827;-.71245168861302;.35705697856879
$9;.150877248012944;-.92536292318215;.347763592734828;0.;0.;0.;0;0;0;14;101.1692
$86210595;-184.58375244663;211.146158519746;-.19931167090291;-.39185344700354;-.
$74622298484004;.069206030167978;-0.7718226626641;0.38681172678286;.150877248012
$944;-.92536292318215;.347763592734828;0.;0.;0.;0;0;0;15;103.685103854199;-179.5
$0340565021;219.828589911331;-.21464333789544;-.42199601984996;-.80362475290465;
$.074529570950129;-.83119363671517;.416566474996922;.150877248012944;-.925362923
$18215;.347763592734828;0.;0.;0.;0;0;0;16;106.228099311601;-174.46210297354;228.
$516855730607;-.22996385359709;-.45211666888354;-.86098477053123;.07984923972333
$3;-.89052142805155;.446299581477401;.150877248012944;-.92536292318215;.34776359
$2734828;0.;0.;0.;0;0;0;17;108.317993042482;-169.56561839518;237.91311821366;-0.
$1381627219016;-0.6097521008763;-.77996477474542;.293095941854734;-.777412677243
$88;.555838025164498;.320953736256085;-.79630777027889;.512720815041409;0.;0.;0.
$;0;0;0;18;109.529949888885;-163.00950275267;246.44363891558;-.09639843125778;-.
$60219943603998;-.79237014605427;.361711259884743;-.76283905837812;.535750690302
$173;.368049531190151;-.76230600461181;.532380594991482;0.;0.;0.;0;0;0;19;110.43
$2509444312;-156.48841338025;255.11945736375;-.07691208974343;-.56902768042892;-
$0.8187086579335;.381778001182973;-.77536509739944;.503037136567258;0.3809905054
$4092;-.78360532786475;.490722859571321;0.;0.;0.;0;0;0;20;111.242828224662;-150.
$28949015273;264.059288045995;-.06749954696554;-.53018204053464;-0.8451259531569
$;.409407471660542;-.78716992941476;0.46112480525241;.389733769506779;-.79138004
$627378;.470983238837382;0.;0.;0.;0;0;0;21;112.085663267089;-144.46229629861;273
$.258378536836;-.03978821126448;-.53524220618671;-.84350082042228;.4320206824269
$59;-0.7703679834042;.468457314163634;.397370982259112;-.78922258673918;.4682136
$38245554;0.;0.;0.;0;1;0;22;112.727049735487;-138.53132643256;282.420231593245;-
$.01487589360011;-.54418553105838;-.83835027215332;.467147158814533;-.7450130762
$0638;.475309805849042;.442907123101271;-.77361623274534;0.45315693169041;0.;0.;
$0.;0;1;0;23;113.165017910765;-132.45727721689;291.510409092828;-.00386618012136
$;-.53698391508297;-.84263572274179;.501555862132707;-.72983586360106;.462799052
$515404;.481255895014644;-.74262594147213;.465724676784781;0.;0.;0.;0;1;0;24;113
$.58602880227;-126.39204655178;300.619032710016;.003628044745001;-.5349777390827
$9;-.84366707941441;0.49839503186406;-.73020748417888;.465175136021716;.49506036
$4471575;-.73780484675202;.458867348629752;0.;0.;0.;0;1;0;25;113.971560210702;-1
$20.33196503623;309.718766575841;0.00182295834134;-.52950091346492;-0.8476918874
$12;.508018129098279;-.72953352001749;.456787149775246;.508699490375387;-.732567
$90802943;.452293144561361;0.;0.;0.;0;1;0;26;114.255366697605;-114.40021701743;3
$18.876708460964;-.00546366650742;-0.5205791101344;-.85378420001445;.52157111379
$1568;-.72994299092349;.441731507835058;.510232213128853;-.73380134671063;.44855
$1749802966;0.;0.;0.;0;1;0;27;114.356824263558;-108.69118270759;328.190855563338
$;.006348329958838;-.53214086008854;-.84662930542968;.529518409260417;-.71641360
$840598;.454265531409128;.514249393509478;-.72870797565406;.452252415685416;0.;0
$.;0.;0;1;0;28;114.267349659495;-102.87557806499;337.46683286237;.03480013299853
$6;-.54421588022254;-.83818536694754;.553989264475857;-.68752967346148;.46939911
$1485681;.547490329859904;-.70730565413895;.447183463841148;0.;0.;0.;0;1;0;29;11
$3.959403583958;-96.886991751995;346.601766242582;.071376240695106;-.53941787008
$212;-.83896345917985;.588395366673652;-.65639017617487;.472089738542182;.595631
$888181597;-.66749023380824;.446855056536059;0.;0.;0.;0;1;0;30;113.254728430248;
$-90.938877515752;355.750262797975;.104836858852313;-.53489989575304;-.838378839
$31621;.610312660820987;-.63099665799348;.478904392657341;.635906007864664;-.626
$21254789927;.451089119814627;0.;0.;0.;0;1;0;31;112.138657333298;-85.06960938289
$5;364.905829054563;.121633209567001;-.55707111508649;-.82149040603688;0.6424162
$9023874;-.58671692012439;.492984703433636;.677118491040904;-.57879804050765;.45
$4426426822861;0.;0.;0.;0;1;0;32;110.762533617208;-79.012468806194;373.907875417
$489;.135205180891804;-.59367554669312;-.79317385362646;.666614556364127;-.53770
$580483349;.516094330960752;.710885869464346;-.51364225152945;.480429930416166;0
$.;0.;0.;0;1;0;33;109.18714512661;-72.596408186684;382.627463425087;.18824078327
$4708;-.61127066571302;-.76861225597541;.702557756623096;-.46299373201153;.54027
$8282009829;.759652819640056;-.44713731963001;.472224322760916;0.;0.;0.;0;1;0;34
$;107.041290890457;-66.010310462169;391.061836330299;.239645774759988;-.57305981
$869727;-.78367989648869;.746115523707686;-.40776118937399;.526330952014893;.824
$609738950899;-.35506051797587;.440398463896096;0.;0.;0.;0;1;0;35;104.3954129062
$47;-59.785503507942;399.635083462849;.276519402745021;-.56948140018143;-.774036
$33638037;0.81423257252003;-.28891753250625;.503444408591571;.866850068033551;-.
$24806487439853;.432475175749857;0.;0.;0.;0;1;0;36;101.437761934581;-53.50032010
$5579;408.025514197899;.255405463513621;-.58104060300987;-.77157252202225;.84747
$1743170732;-.24807781571447;.467347121266359;.897413113275033;-.18794548785731;
$.399156858535703;0.;0.;0.;0;1;0;37;98.8635574456147;-46.787229533657;416.256942
$693477;.327689736881852;-.58366249562992;-.73984372257205;.868325875783025;-0.1
$173046574411;.477138341658032;.916458652008359;-.09081749380998;.38968669720314
$7;0.;0.;0.;0;1;0;38;95.5696878294836;-39.847532510553;423.957457786049;.2963238
$56641867;-.55314529194002;-.77604693862425;.906513961388018;-.08713427764558;.4
$08248023175101;0.92826355867857;-.03085656588646;.370640847682891;0.;0.;0.;0;1;
$0;39;92.5849779578323;-33.342757937584;431.973344740151;.298747389979319;-.5618
$0880339491;-.77021449557613;.912762578582872;-.06442142966024;.401028500640969;
$.929316139087393;-.02521787460901;.368423088896319;0.;0.;0.;0;1;0;40;89.4691527
$579213;-26.849142629963;440.108269366333;.295314756482324;-.58679543678364;-.75
$367597805613;.922180498020346;-.03039114326639;.385002178444606;.92653919893013
$6;-.01412562606696;.375932945529011;0.;0.;0.;0;1;0;41;86.2456282601807;-20.1425
$98097072;448.358848610486;.296166591708657;-.58071684231746;-.75685841063037;.9
$25000201583575;-.01901997346741;0.37655573613619;.915919952216009;-.02165279901
$357;.400776493107444;0.;0.;0.;0;1;0;42;83.1610618601024;-13.446655940914;456.27
$4227126833;.342744458194985;-0.5190887090002;-.77122704337647;.898637417041583;
$-.02553384473068;.416553501169043;.900210411009054;-.03322165681006;.4341860631
$45404;0.;0.;0.;0;1;0;43;79.8720623927014;-6.7233883478504;463.781759407954;.373
$919545870629;-.46152482578621;-.78193365406769;.876082970679335;-.0387823265215
$6;.441832310497981;.896393033602492;-.03391922588136;.441960422916498;0.;0.;0.;
$0;1;0;44;76.2692150750447;.178087789754934;471.531415557245;.371060553476437;-.
$46746620588117;-.78100352365801;.871734707840505;-.06012652374346;.450156075425
$142;.908121351586173;-.02557449405524;0.41792529960164;0.;0.;0.;0;1;0;45;72.743
$0518623933;7.06314659030641;479.279513827675;.319636174946092;-.53257261561087;
$-.77426867415016;.897861651775208;-.06837196792013;0.41768718352045;.8964709772
$34315;-0.0383641147223;.441438536693532;0.;0.;0.;0;1;0;46;69.7315458162388;13.7
$510793207815;486.847816231372;.311478561541676;-.60537784840733;-.7314485859705
$3;.890139459000451;-.08167548622802;.446653250341302;.868332472340753;-.0859916
$8795089;.488471234651492;0.;0.;0.;0;1;0;47;66.6170224228076;20.3797992678162;49
$4.266913911025;.352635580737388;-.65163059081835;-.67138351379828;.860282844501
$394;-.05624115337061;.506439001673964;.843913235939774;-.08991934055455;.528890
$312257555;0.;0.;0.;0;1;0;48;62.8395265130357;27.1116995968832;501.431300447688;
$.401207825171545;-0.6766761535892;-0.615703588801;.827095395201068;-.0190657086
$0807;.559909770472044;.837359374453818;-.03805497407484;.545326596602875;0.;0.;
$0.;0;1;0;49;58.4091318811754;33.9156439721918;508.20753694126;.309740434743205;
$-.68643705481061;-.65410871386285;.852619792953265;-.09942628228317;.5080817648
$16414;.846183248928032;-.06960163342683;.528327097410228;0.;0.;0.;0;1;0;50;54.8
$104571136012;40.6593853099964;515.566207777406;0.41151986911766;-.7055453402089
$1;-0.5702598706453;.793406896719046;-.02372057598621;.601898646244575;.80574163
$7342098;-.02604866370613;.591694077182119;0.;0.;0.;0;1;0;51;50.0123994147341;47
$.521132311822;522.161299301635;.457980232217097;-.70052310701872;-.541733966897
$ ... 7 like lines cut
$;0.;0;1;0;54;33.5401715391439;68.5120883283839;540.537845929296;.54348049460595
$1;-.63682763202589;-.54681189702465;.787482278231056;.161344085396336;.59478019
$4051702;.810123928669215;.153397915511412;.565834162731723;0.;0.;0.;0;1;0;55;27
$.6658667857174;75.4991406971313;546.420004331995;.546121740381385;-.63514969247
$598;-.54607380714228;.797332924201869;.194448208027459;.571236196677866;.814643
$426673759;.204635565695248;.542660457956742;0.;0.;0.;0;1;0;56;21.7710108201265;
$82.4889710536595;552.268728164589;.571006170466601;-.62923691445377;-.527082706
$90402;.787849906125346;.239978385320922;.567015185984072;.773671665882966;.2477
$04856717638;.583159032656077;0.;0.;0.;0;1;0;57;15.6087861140896;89.430759280154
$9;557.892967347541;.603202884009226;-.62045179183318;-.50098284786083;0.7569486
$7596738;.247802138901929;.604500422682778;0.74887525069387;0.24297304917224;.61
$6563018899234;0.;0.;0.;0;1;0;58;9.0984543022679;96.281914134893;563.23664635404
$8;.641584321045015;-.60777733499557;-.46778928895484;0.72496213243303;.28154969
$4669965;.628498388840725;0.69611907199487;.260238600687628;.669099475651525;0.;
$0.;0.;0;1;0;59;2.16933121290679;102.975878532776;568.230562446956;.629505063158
$257;-.60868810438781;-.48283773800946;.718652980778903;0.22002988029223;.659571
$724081147;.712470934442932;.214303133065086;.668176125533159;0.;0.;0.;0;1;0;60;
$-4.6029901546847;109.631592649861;573.38920226268;.629175641302125;-.5958947850
$8874;-.49881331154087;.713228326306449;0.18795708215184;0.67508872905517;.70930
$4927704875;.200797551587253;.675697315970802;0.;0.;0.;0;1;0;61;-11.339614610494
$;116.188446878894;578.680868443491;.643717913067606;-.57846227642252;-.50086314
$977743;.697541910789482;.174599929176844;.694841995763506;0.68676401707926;.188
$565874065122;.701995794847244;0.;0.;0.;0;1;0;62;-18.258041324413;122.5459325161
$28;584.028668476213;.639553111131983;-.57720063234964;-.50772690606575;.6854723
$39844456;.129244895845477;.716518521248815;0.67475022096711;.152026815437407;.7
$22218794197989;0.;0.;0.;0;1;0;63;-25.144382907427;128.820936887324;589.48475129
$2715;.653947538334236;-.57885642231904;-.48710952381609;.656152205239698;.11346
$9017867976;.746047514766251;.645990119000725;.128812108784826;.752398967824807;
$0.;0.;0.;0;1;0;64;-32.187911065558;135.07379633318;594.728546943805;.6405422434
$29444;-.58481230745367;-.49768753998347;.652739506692816;.073248832757608;.7540
$28138018582;.629755368989418;0.08442138876939;.772192465870556;0.;0.;0.;0;1;0;6
$5;-39.112442488078;141.361511137579;600.112095978655;.661162011089118;-.5845682
$3998014;-.47022496832005;.620574318408955;.073947930544326;.780631777364944;.61
$5064163490167;.061431930659423;.786080271146399;0.;0.;0.;0;1;0;66;-46.280399622
$181;147.625542993982;605.216984142044;.676349480628685;-.58464352605377;-.44799
$540876715;.594828376434335;.074860491642285;.800332223616728;0.58023118296367;.
$074849320597416;.811005150120938;0.;0.;0.;0;1;0;67;-53.61970295291;153.88543803
$0252;610.086220878161;.673152848824726;-.58216273856899;-0.4560075811116;.57048
$4315758132;.016452195953722;.821138293354121;.569395277361957;.044722466232915;
$.820846465017634;0.;0.;0.;0;1;0;68;-60.892078446066;160.135630166435;615.013462
$494003;.677795162675572;-0.5710690028327;-.46311305713141;.574519103701811;.018
$293884014583;0.8182865790893;.564070948210328;.016331007447293;.825564814887879
$;0.;0.;0.;0;1;0;69;-68.192244731183;166.292235344243;620.001271012745;.67921679
$7384607;-.56496596659157;-.46848361371709;.573811186355909;.010785614129603;.81
$8915923961824;.565831593471865;.000439122191967;.824520718357514;0.;0.;0.;0;1;0
$;70;-75.499270509525;172.383777142375;625.041046147838;0.68596143858313;-0.5734
$962408928;-.44783302230519;0.56227783668163;.027143872578242;.826500026597876;.
$556160326702917;.010205200306545;.831012361453431;0.;0.;0.;0;1;0;71;-82.8833338
$19654;178.529575678798;629.86267257655;.681192388166042;-.58847616496301;-.4354
$4677222144;.553563863660408;.024839091973519;.832400880719318;.566042725463394;
$.022963196406293;.824056020280647;0.;0.;0.;0;1;0;72;-90.279839816935;184.818118
$530878;634.593850587506;.660802627766713;-.59830328807514;-.45315598119358;0.57
$354865887992;.013110117812142;.819052709771738;.603337936678622;.03103165759400
$4;.796881653943264;0.;0.;0.;0;0;0;73;-97.532355232151;191.32006804896;639.56841
$3417349;.644088446897117;-.60007956108494;-.47439389149181;.606210760624335;.02
$2187594985957;.794991317987179;.636611903523697;.046651206924942;.7697720111723
$87;0.;0.;0.;0;0;0;74;-104.63738083664;197.90914272878;644.802366495176;.6361768
$13625846;-.59824376699582;-.48722008653163;.629616827595101;.037553224180776;.7
$75997655555142;.656051393588856;.065254337137878;.751889912457147;0.;0.;0.;0;0;
$0;75;-111.63681865502;204.494054255791;650.162793998524;.632307010587913;-0.596
$2841077349;-0.4945932859159;.645067851492304;.051684468847267;.762368410874946;
$.661495417758594;.078390453229092;.745840967718267;0.;0.;0.;0;0;0;76;-118.57259
$994537;211.07783071007;655.585068173807;.624078286247032;-.59462358123587;-0.50
$68771485821;.656514726659624;.047313323295179;.752811541887692;.662418952622024
$;.071577492874256;.745706238220505;0.;0.;0.;0;0;0;77;-125.4030544214;217.651672
$026061;661.128638432245;.624614366353063;-.59135488752972;-.51005407958871;.656
$020586207771;.042995629832691;.753516582466445;.646099683627199;.05554104994927
$5;.761229525562011;0.;0.;0.;0;0;0;78;-132.2513276778;224.149335078456;666.72007
$0948573;.639860593430033;-.58536926318643;-.49791687739429;.634926510270615;.03
$7659744499914;.771654093685716;.620011058120705;.037422560256595;.7837000955671
$03;0.;0.;0.;0;0;0;79;-139.26508928428;230.568081941443;672.177820539048;.653187
$104566822;-.57814043098409;-.48896802546032;.613386757055674;.025393062259681;.
$789367696381877;.598921725081688;.020798093907892;.800537448540025;0.;0.;0.;0;0
$;0;80;-146.40323554534;236.929031220957;677.519970242802;-.74401967614518;0.564
$05227251146;.358161632821033;-.48892634824494;-.09425855999145;-.86721759074742
$;.598921725081688;.020798093907892;.800537448540025;0.;0.;0.;0;0;0;81;-154.3077
$4127267;242.921397536093;681.325115958648;-.63886067348867;.484329684083748;.30
$7539423079988;-.41982198339762;-.08093614866505;-.74464591710342;.5989217250816
$88;.020798093907892;.800537448540025;0.;0.;0.;0;0;0;82;-162.21225161341;248.913
$765749179;685.130255600725;-.53370164779291;0.40460707818964;.256917202248138;-
$.35071760341024;-.06761373441985;-.62207421660524;.598921725081688;.02079809390
$7892;.800537448540025;0.;0.;0.;0;0;0;83;-170.11676195415;254.906133962266;688.9
$35395242802;-.42854262209715;.324884472295527;.206294981416286;-.28161322342285
$;-.05429132017465;-.49950251610705;.598921725081688;.020798093907892;.800537448
$540025;0.;0.;0.;0;0;0;84;-178.02127229489;260.898502175352;692.740534884879;-.3
$2338359640139;.245161866401418;.155672760584437;-.21250884343547;-.040968905929
$45;-.37693081560886;.598921725081688;.020798093907892;.800537448540025;0.;0.;0.
$;0;0;0;85;-185.92578263562;266.890870388438;696.545674526956;-0.2182245707057;.
$165439260507365;.105050539752623;-.14340446344814;-.02764649168426;-.2543591151
$1077;.598921725081688;.020798093907892;.800537448540025;0.;0.;0.;0;0;0;86;-193.
$83029297636;272.883238601525;700.350814169033;-.11306554500993;.085716654613253
$;.054428318920771;-.07430008346076;-.01432407743906;-.13178741461258;.598921725
$081688;.020798093907892;.800537448540025;0.;0.;0.;0;0;0;87;-202.76173578504;279
$.180568848438;703.675305066111;0.;0.;0.;0.;0.;0.;.598921725081688;.020798093907
$892;.800537448540025;0.;0.;0.;0;0;0;SBLT_NODE_IDS;3;15000609;4209267;15000015;S
$BLT_POINTS_TYPES;3;0;0;0;SBLT_POINTS_ENTITY_TYPE;3;0;0;0;STIFFENER_CREATE;0;COM
$P_NAME;Retractor;POINTS_NAME;SBPoint;INDEX;2;GENTYPE;0;FLIPPED_ENTRY;0;FLIPPED_
$EXIT;0;LENGTH_1;50.;LENGTH_2;100.;EL_LENGTH;12.;EL_OFFSET;5.;NUM_OF_SHELLS;4;EX
$TEND_SBLTS;0;CREATE_TRIAS_AT_END;0;CREATE_TRIAS_AT_START;0;IS_FROZEN;0;IS_MEMBR
$ANE;0;STATUS_ERROR;1;ENTRY_VEC;0.;0.;0.;EXIT_VEC;0.;0.;0.;SP_ENTITY;4;EP_ENTITY
$;2;START_PART_TYPE;0;END_PART_TYPE;0;MAIN_PART_TYPE_v14;0;CONTAINS;;STIFFENER_C
$REATE;0;END_ANCHOR_ELEM_NUM;1073741824;
$ANSA_NAME_COMMENT;10000;ELEMENT_SEATBELT_SENSOR;Time_Sensor;;NO;NO;NO;
$ANSA_NAME_COMMENT;15000015;NODE;SBPoint_2_3;;NO;NO;NO;
$ANSA_NAME_COMMENT;15000020;NODE;SBPoint_1_0;;NO;NO;NO;
$ANSA_NAME_COMMENT;15000609;NODE;SBPoint_1_5;;NO;NO;NO;
$ANSA_NAME_COMMENT;1;SEATBELT;3-Point Seatbelt Entity;;NO;NO;NO;
$ANSA_USER_ATTRIBUTES;SECTION_SHELL;User/cad_material;TEXT;RW;YES;;;
$ANSA_USER_ATTRIBUTES;SECTION_SHELL;User/cad_thickness;TEXT;RW;YES;;;
$ANSA_PART;GROUP;ID;2279;NAME;run.key;BELONGS_HERE;YES;PID_OFFSET;0;COLOR;203;20
$2;97;0;IS_COLOR_ACTIVE;1;PART_TYPE;Undefined;ATTRIBUTES;2;DM/File Type;ANSA;DM/
$Status;WIP;CONTAINS;ANSAPART;2275-2278;
$ANSA_PART;PART;ID;2274;NAME;Default Seatbelt Part;BELONGS_HERE;YES;STUDY_VERSIO
$N;0;PID_OFFSET;0;COLOR;251;232;8;0;IS_COLOR_ACTIVE;1;PART_TYPE;Undefined;ATTRIB
$UTES;2;DM/File Type;ANSA;DM/Status;WIP;CONTAINS;CONSTRAINED_NODAL_RIGID_BODY;15
$000727,15000735,15001005,15001017;ELEMENT_SEATBELT_SLIPRING;12998;SEATBELT;1;SE
$CTION_SEATBELT;10001;SECTION_SHELL;10002;
$ANSA_PART;PART;ID;2275;NAME;NO PID ELMNTs@1;BELONGS_HERE;YES;STUDY_VERSION;0;PI
$D_OFFSET;0;COLOR;143;44;41;0;IS_COLOR_ACTIVE;1;PART_TYPE;Undefined;ATTRIBUTES;2
$;DM/File Type;ANSA;DM/Status;WIP;CONTAINS;ELEMENT_SEATBELT_PRETENSIONER;12000;E
$LEMENT_SEATBELT_RETRACTOR;12000;ELEMENT_SEATBELT_SENSOR;10000;
$ANSA_PART;PART;ID;2276;NAME;JOINTs@1;BELONGS_HERE;YES;STUDY_VERSION;0;PID_OFFSE
$T;0;COLOR;136;145;103;0;IS_COLOR_ACTIVE;1;PART_TYPE;Undefined;ATTRIBUTES;2;DM/F
$ile Type;ANSA;DM/Status;WIP;CONTAINS;CONSTRAINED_JOINT_REVOLUTE;15000007;
$ANSA_PART;PART;ID;2277;NAME;BARs;BELONGS_HERE;YES;STUDY_VERSION;0;PID_OFFSET;0;
$COLOR;166;76;229;0;IS_COLOR_ACTIVE;1;PART_TYPE;Undefined;ATTRIBUTES;2;DM/File T
$ype;ANSA;DM/Status;WIP;CONTAINS;CONSTRAINED_EXTRA_NODES_NODE;9000121;SECTION_BE
$AM_ELFORM_1;99999;
$ANSA_PART;PART;ID;2278;MID;1000;NAME;Seat_Pan;BELONGS_HERE;YES;STUDY_VERSION;0;
$PID_OFFSET;0;COLOR;190;213;2;0;IS_COLOR_ACTIVE;1;PART_TYPE;Undefined;ATTRIBUTES
$;2;DM/File Type;ANSA;DM/Status;WIP;CONTAINS;CONSTRAINED_EXTRA_NODES_NODE;900011
$6,9000118-9000120;
*END
